 ****** HSPICE -- A-2008.03 64-BIT (Feb 26 2008) linux ******                   
  Copyright (C) 2008 Synopsys, Inc. All Rights Reserved.                        
  Unpublished-rights reserved under US copyright laws.
  This program is protected by law and is subject to the 
  terms and conditions of the license agreement found in:
    /license.warn
  Use of this program is your acceptance to be bound by this 
  license agreement. HSPICE is the trademark of Synopsys, Inc.
  Input File: /home/madiming/EDA/AnalogCourse/HGRASS/examples/sp/cmos_inverter.s
 lic: No 'setenv LM_LICENSE_FILE' in current environment' 
 lic:  
 lic: FLEXlm: v8.5b 
 lic: USER:   madiming             HOSTNAME: eda-server.localdomain 
 lic: HOSTID: 002219a9250f         PID:      6930 
 lic: Using FLEXlm license file: 
 lic: /usr/local/flexlm/licenses/license.dat 
 lic: Checkout 1 hspice 
 lic: License/Maintenance for hspice will expire on 31-dec-2020/2007.9 
 lic: NODE LOCKED license on hostid 002219a9250f 
 lic:   
 *iodef: vin 2 1 vout 4
 .lib 'cmos25.lib' tt

 .param toxp = 5.8e-9 toxn = 5.8e-9 
 +dxl = 0 dxw = 0 
 +dvthn = 0 dvthp = 0 
 +cjn = 2.024128e-3    cjp = 1.931092e-3  
 +cjswn = 2.751528e-10  cjswp = 2.232277e-10
 +cgon =  3.11e-10 cgop = 2.68e-10  
 +cjgaten = 2.135064e-10 cjgatep = 1.607088e-10
 +hdifn = 3.1e-07 hdifp = 3.1e-7 
 .lib 'cmos25.lib' mos


 ***************************************************************
 *                 nmos devices model                          *
 ***************************************************************


 .model nmos       nmos   (       				level   = 49             
 +version = 3.1 			
 +xl      = '3e-8 + dxl'
 +xw      = '0 + dxw'     tnom    = 25             tox     = toxn           
 +calcacm = 1              sfvtflag= 0              vfbflag = 1
 +xj      = 1e-07          nch     = 2.354946e+17   lln     = 1              
 +lwn     = 1              wln     = 1              wwn     = 1              
 +lint    = 1.76e-08       wint    = 6.75e-09       mobmod  = 1              
 +binunit = 2              dwg     = 0              dwb     = 0              
 +vth0    = '0.4321336+dvthn' lvth0   = 2.081814e-08   wvth0   = -5.470342e-11
 +pvth0   = -6.721795e-16  k1      = 0.3281252      lk1     = 9.238362e-08   
 +wk1     = 2.878255e-08   pk1     = -2.426481e-14  k2      = 0.0402824      
 +lk2     = -3.208392e-08  wk2     = -1.154091e-08  pk2     = 9.192045e-15   
 +k3      = 0              dvt0    = 0              dvt1    = 0              
 +dvt2    = 0              dvt0w   = 0              dvt1w   = 0              
 +dvt2w   = 0              nlx     = 0              w0      = 0              
 +k3b     = 0              vsat    = 7.586954e+04   lvsat   = 3.094656e-03   
 +wvsat   = -1.747416e-03  pvsat   = 8.820956e-10   ua      = 8.924498e-10   
 +lua     = -1.511745e-16  wua     = -3.509821e-17  pua     = -3.08778e-23   
 +ub      = 8.928832e-21   lub     = -1.655745e-27  wub     = -2.03282e-27   
 +pub     = 3.4578e-34     uc      = -1.364265e-11  luc     = 1.170473e-17   
 +wuc     = -1.256705e-18  puc     = -6.249644e-24  rdsw    = 447.8871       
 +prwb    = 0              prwg    = 0              wr      = 0.99           
 +u0      = 0.06005258     lu0     = -6.31976e-09   wu0     = -8.819531e-09  
 +pu0     = 3.57209e-15    a0      = -1.468837      la0     = 6.419548e-07   
 +wa0     = 5.512414e-07   pa0     = -9.222928e-14  keta    = -0.04922795    
 +lketa   = 2.360844e-08   wketa   = 1.560385e-08   pketa   = -5.98377e-15   
 +a1      = 0.02659908     la1     = -6.511454e-09  a2      = 1              
 +ags     = -4.01637       lags    = 1.090294e-06   wags    = 1.162021e-06   
 +pags    = -3.108579e-13  b0      = 0              b1      = 0              
 +voff    = -0.1829426     lvoff   = 9.941631e-09   wvoff   = 1.568082e-08   
 +pvoff   = -2.832958e-15  nfactor = 0.6790636      lnfactor= 3.454948e-08   
 +wnfactor= 1.501016e-07   pnfactor= -2.955591e-14  cit     = 2.218499e-04   
 +lcit    = -1.076934e-10  wcit    = -3.286884e-10  pcit    = 1.658928e-16   
 +cdsc    = 0              cdscb   = 0              cdscd   = 0              
 +eta0    = 1.215578e-04   leta0   = -1.037758e-11  weta0   = -3.030225e-11  
 +peta0   = 1.529658e-17   etab    = 3.548681e-03   letab   = -1.791374e-09  
 +wetab   = -6.897268e-10  petab   = 3.481742e-16   dsub    = 0              
 +pclm    = 3.583838       lpclm   = -6.874146e-07  wpclm   = 5.664574e-08   
 +ppclm   = -1.33176e-15   pdiblc1 = 0              pdiblc2 = 5.379674e-03   
 +lpdiblc2= 7.808481e-09   wpdiblc2= 5.516945e-10   ppdiblc2= -2.784957e-16  
 +pdiblcb = -0.1229374     lpdiblcb= 4.956215e-08   wpdiblcb= 3.299946e-08   
 +ppdiblcb= -9.624918e-15  drout   = 0              pscbe1  = 4.472639e+08   
 +lpscbe1 = 28.64041       wpscbe1 = 15.7154        ppscbe1 = -7.933138e-06  
 +pscbe2  = 1.842585e-06   lpscbe2 = 2.871008e-12   wpscbe2 = 2.579183e-12   
 +ppscbe2 = -1.301972e-18  pvag    = -2.015254e-03  lpvag   = 1.017757e-09   
 +wpvag   = 3.07622e-10    ppvag   = -1.55418e-16   delta   = -0.02862256    
 +ldelta  = 1.492454e-08   wdelta  = -6.71663e-09   pdelta  = 3.407521e-15   
 +alpha0  = 0              beta0   = 30             kt1     = -0.2579945     
 +lkt1    = -1.664895e-08  wkt1    = -1.633463e-08  pkt1    = 3.755864e-15   
 +kt2     = -0.05347481    lkt2    = 8.244731e-09   wkt2    = 1.13705e-09    
 +pkt2    = -1.240924e-15  at      = -1.132632e+04  lat     = 6.469047e-03   
 +wat     = 6.829220e-04   pat     = -4.154249e-10  ute     = -2.309089      
 +lute    = 1.662427e-07   wute    = 1.244801e-07   pute    = -5.627924e-14  
 +ua1     = -3.461758e-10  lua1    = 1.747495e-16   wua1    = -1.42065e-16   
 +pua1    = 7.171442e-23   ub1     = 0              uc1     = -2.38157e-12   
 +luc1    = -2.895726e-18  wuc1    = -1.990052e-17  puc1    = 1.004497e-23   
 +kt1l    = 0              prt     = -1e-18         cj      = cjn
 +mj      = 0.4960069      pb      = 0.9173808      cjsw    = cjswn          
 +mjsw    = 0.443145       pbsw    = 0.9173808      cjswg   = cjgaten        
 +mjswg   = 0.443145       pbswg   = 0.9173808      hdif    = hdifn          
 +rs      = 0              rd      = 0
 +acm     = 12             ldif    = 1.2e-07        rsh     = 4.5            
 +cta     = 7.707813e-04   ctp     = 5.512283e-04   pta     = 1.167715e-03   
 +ptp     = 1.167715e-03   n       = 1              xti     = 3              
 +cgdo    = 'cgon'         cgso    = 'cgon'         capmod  = 0              
 +nqsmod  = 0              xpart   = 1              cf      = 0              
 +tlev    = 1              tlevc   = 1              js      = 1e-06          
 +jsw     = 5e-11           )
 *
 ***************************************************************
 *                 pmos devices model                          *
 ***************************************************************
       
 .model pmos pmos (                               level   = 49                 
 +version = 3.1      
 +xl      = '3e-8+dxl'     
 +xw      = '0+dxw'        tnom    = 25             tox     = toxp          
 +calcacm = 1              sfvtflag= 0              vfbflag = 1
 +xj      = 1e-7           nch     = 4.1589e17          
 +lln     = 1              lwn     = 1              wln     = 1                  
 +wwn     = 1              lint    = 1.2365e-8      wint    = 7.8e-9             
 +mobmod  = 1              binunit = 2              dwg     = 0                  
 +dwb     = 0              vth0    = 'dvthp-0.6236538' lvth0   = 2.649834e-8
 +wvth0   = 3.214189e-8    pvth0   = -3.22268e-15   k1      = 0.4198155          
 +lk1     = 5.770498e-8    wk1     = 5.577151e-8    pk1     = -2.81684e-14       
 +k2      = 0.0429467      lk2     = -2.296405e-8   wk2     = -1.355302e-8       
 +pk2     = 6.848271e-15   k3      = 0              dvt0    = 0                  
 +dvt1    = 0              dvt2    = 0              dvt0w   = 0                  
 +dvt1w   = 0              dvt2w   = 0              nlx     = 0                  
 +w0      = 0              k3b     = 0              vsat    = 1.443912e5         
 +lvsat   = -7.688012e-4   wvsat   = -6.083648e-3   pvsat   = 2.186471e-10       
 +ua      = 1.846811e-9    lua     = -3.27694e-16   wua     = -2.82106e-16       
 +pua     = 7.180233e-23   ub      = -7.84535e-19   lub     = 4.772849e-25       
 +wub     = 2.599205e-25   pub     = -1.46530e-31   uc      = -1.75560e-10       
 +luc     = 3.360832e-17   wuc     = 1.504425e-17   puc     = -1.30556e-23       
 +rdsw    = 1.03e3         prwb    = 0              prwg    = 0                  
 +wr      = 1              u0      = 0.0136443      lu0     = -7.22084e-10       
 +wu0     = -1.088554e-9   pu0     = 2.730854e-16   a0      = 0.1071803          
 +la0     = 4.64252e-7     wa0     = 5.383179e-7    pa0     = -1.32033e-13       
 +keta    = -4.943762e-3   lketa   = -3.565304e-9   wketa   = -5.226247e-9       
 +pketa   = 2.640665e-15   a1      = 0              a2      = 0.4                
 +ags     = 0.1664005      lags    = 1.19106e-7     wags    = 5.29237e-8         
 +pags    = -2.67304e-14   b0      = 0              b1      = 0                  
 +voff    = -0.0592623     lvoff   = -1.96686e-8    wvoff   = -1.486398e-8       
 +pvoff   = 7.510321e-15   nfactor = 0.8588103      lnfactor= -1.158881e-7       
 +wnfactor= 1.210664e-8    pnfactor= -6.11712e-15   cit     = 6.439495e-5        
 +lcit    = 2.916437e-10   wcit    = -3.11284e-11   pcit    = 1.572825e-17       
 +cdsc    = 0              cdscb   = 0              cdscd   = 0                  
 +eta0    = -3.819468e-3   leta0   = 2.155422e-9    weta0   = 8.235612e-10       
 +peta0   = -4.16037e-16   etab    = 1.334637e-3    letab   = -7.93631e-10       
 +wetab   = 5.284657e-11   petab   = -2.68353e-17   dsub    = 0                  
 +pclm    = 0.1098002      lpclm   = 6.874263e-7    wpclm   = 6.724724e-7        
 +ppclm   = -1.97766e-13   pdiblc1 = 0              pdiblc2 = 5.801323e-3        
 +lpdiblc2= -1.81964e-9    wpdiblc2= -5.853396e-9   ppdiblc2= 2.957545e-15       
 +pdiblcb = 0.1921199      drout   = 0              pscbe1  = 7.19e8             
 +pscbe2  = 1e-20          pvag    = 0              delta   = 0.01               
 +alpha0  = 0              beta0   = 30             kt1     = -0.3248987         
 +lkt1    = -1.160393e-8   wkt1    = 4.153356e-8    pkt1    = -4.62347e-15       
 +kt2     = -0.0367632     at      = 1e4            ute     = -1.04              
 +ua1     = 3.992421e-10   ub1     = -9.23294e-19   lub1    = -5.28718e-26       
 +wub1    = -6.13069e-26   pub1    = 1.503674e-32   uc1     = -1.00699e-12       
 +kt1l    = 0              prt     = 0              cj      = cjp                
 +mj      = 0.4812153      pb      = 0.9134669      cjsw    = cjswp              
 +mjsw    = 0.3237595      pbsw    = 0.9134669      cjswg   = cjgatep            
 +mjswg   = 0.3237595      pbswg   = 0.9134669      hdif    = hdifp              
 +ldif    = 1.2e-7         acm     = 12             rs      = 0                  
 +rd      = 0              rsh     = 3.5            cta     = 8.3043e-4          
 +ctp     = 4.30175e-4     pta     = 1.3004e-3      ptp     = 1.3004e-3          
 +cgdo    = cgop           cgso    = cgop                         
 +capmod  = 0              nqsmod  = 0              xpart   = 1              
 +cf      = 0              n       = 1              xti     = 3
 +tlev    = 1              tlevc   = 1              js      = 3e-7           
 +jsw     = 5e-12           )  
 *
 .endl mos
 .endl tt

 *.lib 'mix025.lib' tt

 *netlist---------------------------------------

 vdd 1 0 5
 vin 2 0 pulse 0 5 2ns 2ns 2ns 30ns 80ns

 rb 2 3 10k
 r2 2 3 10k
 m1 4 3 0 0 nmos l=0.5u w=10u

 *m1 4 3 0 0 nch l=2u w=100u  **** for 'mix025.lib'

 m2 4 3 1 1 pmos l=0.5u w=10u

 *extra control information---------------------

 *.options post=2 nomod
 .options list node post=2 probe
 .op

 *analysis--------------------------------------

 .tran 1ns 300ns
 .dc vin 0 5 0.1
 .print ac vdb(4) vp(4) 

 .end
 scientific notation:
 a=10**-18  f=10**-15  p=10**-12  n=10**-9  u=10**-6
 m=10**-3   k=10**3    x=10**6    g=10**9 


 circuit parameter definitions
  parameter          =  value 

     0:toxp                                                    =   5.8000n      
     0:toxn                                                    =   5.8000n      
     0:dxl                                                     =   0.           
     0:dxw                                                     =   0.           
     0:dvthn                                                   =   0.           
     0:dvthp                                                   =   0.           
     0:cjn                                                     =   2.0241m      
     0:cjp                                                     =   1.9311m      
     0:cjswn                                                   = 275.1528p      
     0:cjswp                                                   = 223.2277p      
     0:cgon                                                    = 311.0000p      
     0:cgop                                                    = 268.0000p      
     0:cjgaten                                                 = 213.5064p      
     0:cjgatep                                                 = 160.7088p      
     0:hdifn                                                   = 310.0000n      
     0:hdifp                                                   = 310.0000n      




 constants  - tnom         kt           vt           gapsi        ni
            298.1500     4.116e-21     25.6918m      1.1156     1.256e+16  
1****** HSPICE -- A-2008.03 64-BIT (Feb 26 2008) linux ******                   
 ******  
 simple nmos inverter                                                           
  ******  mos   model parameters           tnom=  25.000 temp=  25.000          
 ******  
 ***************************************************************************
 ***        model parameters  model name:   0:nmos     model type:nmos   ***
 ***************************************************************************

   *** general parameters ***
    deriv=   0.           

   ***  level 49  model parameters  ***

      hspver=    2006.03               level=         49         
     version=        3.1            paramchk=          0         
      apwarn=          1                lite=          0         
      vgslim=          0             binUnit=          2         
      capMod=          0               xpart=          1         
      mobMod=          1              nqsMod=          0         
      stiMod=          0                 elm=          5         
    sfvtflag=          0                 tox=    5.8e-09 meter   
          xj=      1e-07 meter       binflag=          0         
        lmin=          0 meter          lmax=          0 meter   
        wmin=          0 meter          wmax=          0 meter   
        lref=          0 meter          wref=          0 meter   
        lint=   1.76e-08 meter          wint=   6.75e-09 meter   
       lmult=          1               wmult=          1         
          ll=          0                 lln=          1         
          lw=          0                 lwn=          1         
         lwl=          0                  wl=          0         
         wln=          1                  ww=          0         
         wwn=          1                 wwl=          0         
         dwg=          0 m/V             dwb=          0 m/V^1/2 
          a0=   -1.46884                 ags=   -4.01637 V^-1    
          b0=          0 meter            b1=          0 meter   
        keta= -0.0492279 V^-1           voff=  -0.182943 V       
       ngate=          0 cm^-3           vbx=          0 V       
         vbm=         -3 V                xt=   1.55e-07 meter   
        vth0=   0.432134 V               nch=2.35495e+17 cm^-3   
        nsub=      6e+16 cm^-3           nlx=          0 meter   
      gamma1=          0 V^-1/2       gamma2=          0 V^-1/2  
          k1=   0.328125 V^1/2            k2=  0.0402824         
          k3=          0                 k3b=          0 V^-1    
          w0=          0 meter          dvt0=          0         
        dvt1=          0                dvt2=          0 V^-1    
       dvt0w=          0 meter^-1      dvt1w=          0 meter^-1
       dvt2w=          0 V^-1           dsub=          0         
        eta0=0.000121558                etab= 0.00354868 V^-1    
          u0=  0.0600526 m^2/V/sec         ua= 8.9245e-10 m/V     
          ub=8.92883e-21 (m/V)^2          uc=-1.36426e-11 V^-1    
        vsat=    75869.5 m/sec            a1=  0.0265991 v^-1    
          a2=          1               delta= -0.0286226 V       
        rdsw=    447.887 ohm-um         prwg=          0 V^-1    
        prwb=          0 V^-1/2           wr=       0.99         
        pclm=    3.58384             pdiblc1=          0         
     pdiblc2= 0.00537967             pdiblcb=  -0.122937 V^-1    
      pscbe1=4.47264e+08 V/m          pscbe2=1.84258e-06 V/m     
       drout=          0                pvag=-0.00201525         
     nfactor=   0.679064                cdsc=          0 f/m^2   
       cdscb=          0 f/V/m^2       cdscd=          0 f/V/m^2 
         cit= 0.00022185 f/m^2        alpha0=          0 m/V     
       beta0=         30 V               dlc=   1.76e-08 meter   
         dwc=   6.75e-09 meter           clc=      1e-07 meter   
         cle=        0.6                cgso=   3.11e-10 f/m     
        cgdo=   3.11e-10 f/m            cgbo=8.03746e-11 f/m     
        cgsl=          0 f/m            cgdl=          0 f/m     
      ckappa=        0.6                  cf=          0 f/m     
     vfbflag=          1               vfbcv=           Vfb      
        tnom=     298.15 K               kt1=  -0.257995 V       
        kt1l=          0                 kt2= -0.0534748         
         ute=   -2.30909                 ua1=-3.46176e-10 m/V     
         ub1=          0 (m/V)^2         uc1=-2.38157e-12 m/V^2   
          at=   -11326.3 m/s             prt=     -1e-18         
         using Berkeley noise model       noiMod=          1         
        noia=      1e+20                noib=      50000         
        noic=   -1.4e-12                  em=    4.1e+07         
          ef=          1                  af=          1         
          kf=          0              gdsnoi=-1.23457e-29         
         using Berkeley diodes          using ACM 
         acm=        12                 hdif=   3.1e-07 meter    
        ldif=   1.2e-07 meter             js=     1e-06 amp/m^2  
         jsw=     5e-11 amp/m            xti=         3          
          nj=         1                   cj=0.00202413 f/m^2    
          mj=  0.496007                   pb=  0.917381 V        
        cjsw=2.75153e-10 f/m             mjsw=  0.443145          
         php (not used)                  pbsw=  0.917381 V        
      cjgate (not used)                 cjswg=2.13506e-10 f/m      
       mjswg=  0.443145                pbswg=  0.917381 V        
         la0=6.41955e-07                lags=1.09029e-06         
       lketa=2.36084e-08               lvoff=9.94163e-09         
       lvth0=2.08181e-08                 lk1=9.23836e-08         
         lk2=-3.20839e-08               leta0=-1.03776e-11         
       letab=-1.79137e-09                 lu0=-6.31976e-09         
         lua=-1.51174e-16                 lub=-1.65575e-27         
         luc=1.17047e-17               lvsat= 0.00309466         
         la1=-6.51145e-09              ldelta=1.49245e-08         
       lpclm=-6.87415e-07            lpdiblc2=7.80848e-09         
    lpdiblcb=4.95622e-08             lpscbe1=    28.6404         
     lpscbe2=2.87101e-12               lpvag=1.01776e-09         
    lnfactor=3.45495e-08                lcit=-1.07693e-10         
        lkt1=-1.66489e-08                lkt2=8.24473e-09         
        lute=1.66243e-07                lua1=1.74749e-16         
        luc1=-2.89573e-18                 lat= 0.00646905         
         wa0=5.51241e-07                wags=1.16202e-06         
       wketa=1.56039e-08               wvoff=1.56808e-08         
       wvth0=-5.47034e-11                 wk1=2.87826e-08         
         wk2=-1.15409e-08               weta0=-3.03023e-11         
       wetab=-6.89727e-10                 wu0=-8.81953e-09         
         wua=-3.50982e-17                 wub=-2.03282e-27         
         wuc=-1.25671e-18               wvsat=-0.00174742         
      wdelta=-6.71663e-09               wpclm=5.66457e-08         
    wpdiblc2=5.51694e-10            wpdiblcb=3.29995e-08         
     wpscbe1=    15.7154             wpscbe2=2.57918e-12         
       wpvag=3.07622e-10            wnfactor=1.50102e-07         
        wcit=-3.28688e-10                wkt1=-1.63346e-08         
        wkt2=1.13705e-09                wute= 1.2448e-07         
        wua1=-1.42065e-16                wuc1=-1.99005e-17         
         wat=0.000682922                 pa0=-9.22293e-14         
        pags=-3.10858e-13               pketa=-5.98377e-15         
       pvoff=-2.83296e-15               pvth0=-6.7218e-16         
         pk1=-2.42648e-14                 pk2=9.19205e-15         
       peta0=1.52966e-17               petab=3.48174e-16         
         pu0=3.57209e-15                 pua=-3.08778e-23         
         pub= 3.4578e-34                 puc=-6.24964e-24         
       pvsat=8.82096e-10              pdelta=3.40752e-15         
       ppclm=-1.33176e-15            ppdiblc2=-2.78496e-16         
    ppdiblcb=-9.62492e-15             ppscbe1=-7.93314e-06         
     ppscbe2=-1.30197e-18               ppvag=-1.55418e-16         
    pnfactor=-2.95559e-14                pcit=1.65893e-16         
        pkt1=3.75586e-15                pkt2=-1.24092e-15         
        pute=-5.62792e-14                pua1=7.17144e-23         
        puc1= 1.0045e-23                 pat=-4.15425e-10         
 ***************************************************************************
 ***        model parameters  model name:   0:pmos     model type:pmos   ***
 ***************************************************************************

   *** general parameters ***
    deriv=   0.           

   ***  level 49  model parameters  ***

      hspver=    2006.03               level=         49         
     version=        3.1            paramchk=          0         
      apwarn=          1                lite=          0         
      vgslim=          0             binUnit=          2         
      capMod=          0               xpart=          1         
      mobMod=          1              nqsMod=          0         
      stiMod=          0                 elm=          5         
    sfvtflag=          0                 tox=    5.8e-09 meter   
          xj=      1e-07 meter       binflag=          0         
        lmin=          0 meter          lmax=          0 meter   
        wmin=          0 meter          wmax=          0 meter   
        lref=          0 meter          wref=          0 meter   
        lint= 1.2365e-08 meter          wint=    7.8e-09 meter   
       lmult=          1               wmult=          1         
          ll=          0                 lln=          1         
          lw=          0                 lwn=          1         
         lwl=          0                  wl=          0         
         wln=          1                  ww=          0         
         wwn=          1                 wwl=          0         
         dwg=          0 m/V             dwb=          0 m/V^1/2 
          a0=    0.10718                 ags=     0.1664 V^-1    
          b0=          0 meter            b1=          0 meter   
        keta=-0.00494376 V^-1           voff= -0.0592623 V       
       ngate=          0 cm^-3           vbx=          0 V       
         vbm=         -3 V                xt=   1.55e-07 meter   
        vth0=  -0.623654 V               nch= 4.1589e+17 cm^-3   
        nsub=      6e+16 cm^-3           nlx=          0 meter   
      gamma1=          0 V^-1/2       gamma2=          0 V^-1/2  
          k1=   0.419816 V^1/2            k2=  0.0429467         
          k3=          0                 k3b=          0 V^-1    
          w0=          0 meter          dvt0=          0         
        dvt1=          0                dvt2=          0 V^-1    
       dvt0w=          0 meter^-1      dvt1w=          0 meter^-1
       dvt2w=          0 V^-1           dsub=          0         
        eta0=-0.00381947                etab= 0.00133464 V^-1    
          u0=  0.0136443 m^2/V/sec         ua=1.84681e-09 m/V     
          ub=-7.84535e-19 (m/V)^2          uc=-1.7556e-10 V^-1    
        vsat=     144391 m/sec            a1=          0 v^-1    
          a2=        0.4               delta=       0.01 V       
        rdsw=       1030 ohm-um         prwg=          0 V^-1    
        prwb=          0 V^-1/2           wr=          1         
        pclm=     0.1098             pdiblc1=          0         
     pdiblc2= 0.00580132             pdiblcb=    0.19212 V^-1    
      pscbe1=   7.19e+08 V/m          pscbe2=      1e-20 V/m     
       drout=          0                pvag=          0         
     nfactor=    0.85881                cdsc=          0 f/m^2   
       cdscb=          0 f/V/m^2       cdscd=          0 f/V/m^2 
         cit= 6.4395e-05 f/m^2        alpha0=          0 m/V     
       beta0=         30 V               dlc= 1.2365e-08 meter   
         dwc=    7.8e-09 meter           clc=      1e-07 meter   
         cle=        0.6                cgso=   2.68e-10 f/m     
        cgdo=   2.68e-10 f/m            cgbo=9.28774e-11 f/m     
        cgsl=          0 f/m            cgdl=          0 f/m     
      ckappa=        0.6                  cf=          0 f/m     
     vfbflag=          1               vfbcv=           Vfb      
        tnom=     298.15 K               kt1=  -0.324899 V       
        kt1l=          0                 kt2= -0.0367632         
         ute=      -1.04                 ua1=3.99242e-10 m/V     
         ub1=-9.23294e-19 (m/V)^2         uc1=-1.00699e-12 m/V^2   
          at=      10000 m/s             prt=          0         
         using Berkeley noise model       noiMod=          1         
        noia=    9.9e+18                noib=       2400         
        noic=    1.4e-12                  em=    4.1e+07         
          ef=          1                  af=          1         
          kf=          0              gdsnoi=-1.23457e-29         
         using Berkeley diodes          using ACM 
         acm=        12                 hdif=   3.1e-07 meter    
        ldif=   1.2e-07 meter             js=     3e-07 amp/m^2  
         jsw=     5e-12 amp/m            xti=         3          
          nj=         1                   cj=0.00193109 f/m^2    
          mj=  0.481215                   pb=  0.913467 V        
        cjsw=2.23228e-10 f/m             mjsw=  0.323759          
         php (not used)                  pbsw=  0.913467 V        
      cjgate (not used)                 cjswg=1.60709e-10 f/m      
       mjswg=  0.323759                pbswg=  0.913467 V        
         la0=4.64252e-07                lags=1.19106e-07         
       lketa=-3.5653e-09               lvoff=-1.96686e-08         
       lvth0=2.64983e-08                 lk1= 5.7705e-08         
         lk2=-2.29641e-08               leta0=2.15542e-09         
       letab=-7.93631e-10                 lu0=-7.22084e-10         
         lua=-3.27694e-16                 lub=4.77285e-25         
         luc=3.36083e-17               lvsat=-0.000768801         
       lpclm=6.87426e-07            lpdiblc2=-1.81964e-09         
    lnfactor=-1.15888e-07                lcit=2.91644e-10         
        lkt1=-1.16039e-08                lub1=-5.28718e-26         
         wa0=5.38318e-07                wags=5.29237e-08         
       wketa=-5.22625e-09               wvoff=-1.4864e-08         
       wvth0=3.21419e-08                 wk1=5.57715e-08         
         wk2=-1.3553e-08               weta0=8.23561e-10         
       wetab=5.28466e-11                 wu0=-1.08855e-09         
         wua=-2.82106e-16                 wub= 2.5992e-25         
         wuc=1.50442e-17               wvsat=-0.00608365         
       wpclm=6.72472e-07            wpdiblc2=-5.8534e-09         
    wnfactor=1.21066e-08                wcit=-3.11284e-11         
        wkt1=4.15336e-08                wub1=-6.13069e-26         
         pa0=-1.32033e-13                pags=-2.67304e-14         
       pketa=2.64067e-15               pvoff=7.51032e-15         
       pvth0=-3.22268e-15                 pk1=-2.81684e-14         
         pk2=6.84827e-15               peta0=-4.16037e-16         
       petab=-2.68353e-17                 pu0=2.73085e-16         
         pua=7.18023e-23                 pub=-1.4653e-31         
         puc=-1.30556e-23               pvsat=2.18647e-10         
       ppclm=-1.97766e-13            ppdiblc2=2.95755e-15         
    pnfactor=-6.11712e-15                pcit=1.57282e-17         
        pkt1=-4.62347e-15                pub1=1.50367e-32         

 **warning** dc voltage reset to initial transient source value
             in source        0:vin                 new dc=  0.0000D+00

 

1****** HSPICE -- A-2008.03 64-BIT (Feb 26 2008) linux ******                   
 ******  
 simple nmos inverter                                                           
  ******  circuit element summary          tnom=  25.000 temp=  25.000          
 ******  


 **** resistors

  
 
                                        
 element name        0:rb       0:r2    
 node1               0:2        0:2     
 node2               0:3        0:3     
 model                                  
 res eff            10.0000k   10.0000k 
 tc1                 0.         0.      
 tc2                 0.         0.      
 scale               1.0000     1.0000  
 m                   1.0000     1.0000  
 ac                 10.0000k   10.0000k 
 temp               25.0000    25.0000  
 l                   0.         0.      
 w                   0.         0.      
 cap                 0.         0.      
 noise               1.0000     1.0000  


 **** independent sources

     name         node1        node2      dc volt    ac mag    ac phase    type
        0:vdd       0:1                      0:0                   5.0000     0.         0.      dc   
        0:vin       0:2                      0:0                   0.         0.         0.      pulse
             initial value     0.     
             pulsed value.     5.0000 
             delay time...     2.0000n
             risetime.....     2.0000n
             falltime.....     2.0000n
             width........    30.0000n
             period.......    80.0000n



 **** mosfets


 **** BSIM3v3 Model (Level49 or Level53)
  
 
                                        
 element name        0:m1       0:m2    
 drain               0:4        0:4     
 gate                0:3        0:3     
 source              0:0        0:1     
 bulk                0:0        0:1     
 model               0:nmos     0:pmos  
 w eff               9.9865u    9.9844u 
 l eff             494.8000n  505.2700n 
 rd eff            139.5000m  108.5000m 
 rs eff            139.5000m  108.5000m 
 cdsat               1.0682f  108.0600a 
 cssat               1.0682f  108.0600a 
 capbd              15.6423f   14.4818f 
 capbs              15.6423f   14.4818f 
 temp               25.0000    25.0000  
 aic                                    
 nf                  1.0000     1.0000  
 sa                  0.         0.      
 sb                  0.         0.      
 sd                  0.         0.      
 saeff               0.         0.      
 sbeff               0.         0.      
 mulu0               1.0000     1.0000  
 mulua               1.0000     1.0000  
 mulub               1.0000     1.0000  
  
 
1****** HSPICE -- A-2008.03 64-BIT (Feb 26 2008) linux ******                   
 ******  
 simple nmos inverter                                                           
  ******  element node table                                                    
 ******  
                                                                                
       
 0                vdd              vin              m1:s             m1:b       
       
 1                vdd              m2:s             m2:b                        
       
 2                rb               r2               vin                         
       
 3                rb               r2               m1:g             m2:g       
       
 4                m1:d             m2:d                                         
       
 **warning** no probe statements specified, thus .sw# omitted
1****** HSPICE -- A-2008.03 64-BIT (Feb 26 2008) linux ******                   
 ******  
 simple nmos inverter                                                           
  ******  operating point information      tnom=  25.000 temp=  25.000          
 ******  
 ***** operating point status is all       simulation time is     0.     
    node    =voltage      node    =voltage      node    =voltage

 +0:1       =   5.0000  0:2       =   0.      0:3       =   0.     
 +0:4       =   5.0000 


 ****  voltage sources

 subckt                        
 element  0:vdd      0:vin     
  volts      5.0000     0.     
  current -205.9675p    0.     
  power      1.0298n    0.     

     total voltage source power dissipation=    1.0298n       watts



 **** resistors

 subckt                        
 element  0:rb       0:r2      
  r value   10.0000k   10.0000k
  v drop     0.         0.     
  current    0.         0.     
  power      0.         0.     



 **** mosfets


 subckt                        
 element  0:m1       0:m2      
 model    0:nmos     0:pmos    
 region       Cutoff     Linear
  id       195.9515p -205.9601p
  ibs     -1.166e-24  9.399e-26
  ibd       -1.0682f  4.025e-22
  vgs        0.        -5.0000 
  vds        5.0000   -95.7178n
  vbs        0.         0.     
  vth      472.5563m -568.6295m
  vdsat     51.4277m   -3.2155 
  vod     -472.5563m   -4.4314 
  beta       5.1746m  626.9808u
  gam eff  557.0919m  538.7475m
  gm         6.3652n   18.2998p
  gds      135.0220p    2.1527m
  gmb        1.7982n   22.6214p
  cdtot     10.3729f   45.1046f
  cgtot     14.0763f   35.4338f
  cstot     20.8840f   46.8115f
  cbtot     32.9099f   40.7237f
  cgs        3.1058f   17.6934f
  cgd        3.1058f   17.6934f



 **warning** no probe statements specified, thus .tr# omitted

          ***** job concluded
1****** HSPICE -- A-2008.03 64-BIT (Feb 26 2008) linux ******                   
 ******  
 simple nmos inverter                                                           
  ******  job statistics summary           tnom=  25.000 temp=  25.000          
 ******  

           total memory used             159 kbytes

  # nodes =       9 # elements=       6
  # diodes=       0 # bjts    =       0 # jfets   =       0 # mosfets =       2
  # va device =       0

    analysis           time    # points   tot. iter  conv.iter

    op point           0.00           1           8
    dc sweep           0.00          51         156
    transient          0.01         301         623         235 rev=        36
    readin             0.00
    errchk             0.00
    setup              0.00
    output             0.00
           total cpu time          0.01 seconds
           total elapsed time         1 seconds
               job started at  22:45:39 03/13/2010
               job ended   at  22:45:39 03/13/2010


 lic: Release hspice token(s) 
