 ****** HSPICE -- A-2008.03 64-BIT (Feb 26 2008) linux ******                   
  Copyright (C) 2008 Synopsys, Inc. All Rights Reserved.                        
  Unpublished-rights reserved under US copyright laws.
  This program is protected by law and is subject to the 
  terms and conditions of the license agreement found in:
    /license.warn
  Use of this program is your acceptance to be bound by this 
  license agreement. HSPICE is the trademark of Synopsys, Inc.
  Input File: /home/madiming/EDA/AnalogCourse/HGRASS/examples/sp/self_bias_inver
 lic: No 'setenv LM_LICENSE_FILE' in current environment' 
 lic:  
 lic: FLEXlm: v8.5b 
 lic: USER:   madiming             HOSTNAME: eda-server.localdomain 
 lic: HOSTID: 002219a9250f         PID:      7687 
 lic: Using FLEXlm license file: 
 lic: /usr/local/flexlm/licenses/license.dat 
 lic: Checkout 1 hspice 
 lic: License/Maintenance for hspice will expire on 31-dec-2020/2007.9 
 lic: NODE LOCKED license on hostid 002219a9250f 
 lic:   
 *iodef: vin in inn 1 vout out
 .lib '/home/madiming/eda/analogcourse/hgrass/examples/lib/log018.l' tt_3v

 .param
 +toxn3          = 6.8e-009     cjn3           = 0.0008964788 cjswn3         = 2.50664e-10 
 +cjswgn3        = 3.00664e-10  cgon3          = 3.18e-10     dvthn3         = 0           
 +hdifn3         = 2e-07                  
 +rshn3          = 6.8 
 +toxp3          = 6.77e-09     cjp3           = 0.00103531   cjswp3         = 2.23115e-10 
 +cjswgp3        = 2.345762e-10 cgop3          = 2.77e-10     dvthp3         = 0           
 +hdifp3         = 2e-07        dxl3           = 0            dxw3           = 0           
 +rshp3          = 7.2        
 .lib 'log018.l' mos_3v

 *******************************************************************************************
 *                                                                                         *
 *                              3.3v i/o device models                                     *
 *                                                                                         *
 *******************************************************************************************

 .model nch3.1 nmos	(	lmin     = '1.000e-05-dxl3'      lmax     = 20.001e-006              
 +wmin     = '1.0000e-05-dxw3'                                wmax     = 900.001e-6               
 +level    = 49                  tnom     = 25.0                version  = 3.24                 
 +tox      = 'toxn3'           toxm     = 'toxn3'           xj       = 1.7000001e-07       
 +nch      = 5.2600000e17        lln      = -1                  lwn      = 1.0000000           
 +wln      = 1.0000000           wwn      = 1.0000000           lint     = 4.0000000e-08       
 +ll       = 0.00                lw       = 0.00                lwl      = 0.00                
 +wint     = 1.4999999e-08       wl       = 0.00                ww       = 0.00                
 +wwl      = 0.00                mobmod   = 1                   binunit  = 2                   
 +xl       = '-0.02e-6+dxl3'   xw       = '0.0+dxw3'        dwg      = 0.00                
 +dwb      = 0.00                acm      = 12                  ldif     = 9.00e-08            
 +hdif     = 'hdifn3'          rsh      = 'rshn3'           rd       = 0                   
 +rs       = 0                                     
 +vth0     = '0.7411730+dvthn3'
 +k1       = 0.8520129           k2       = 3.2049370e-02       k3       = 0.00                
 +dvt0     = 0.00                dvt1     = 0.00                dvt2     = 0.00                
 +dvt0w    = 0.00                dvt1w    = 0.00                dvt2w    = 0.00                
 +nlx      = 0.00                w0       = 0.00                k3b      = 0.00                
 +vsat     = 1.0000000e05        ua       = -6.5967100e-10      
 +ub       = 2.3514212e-18       uc       = 1.0151108e-10       rdsw     = 5.4500000e02        
 +prwb     = 0.00                prwg     = 0.00                wr       = 1.0000000           
 +u0       = 4.0383610e-02       a0       = 0.5957787           keta     = 1.0636362e-02       
 +a1       = 0.00                a2       = 0.9900000           ags      = 2.0000000e-02       
 +b0       = 0.00                b1       = 0.00                voff     = -0.1273081          
 +nfactor  = 1.0000000           cit      = 3.2298330e-04       cdsc     = 0.00                
 +cdscb    = 0.00                cdscd    = 0.00                eta0     = 1.0000000e-05       
 +etab     = -1.0000000e-05      dsub     = 0.00                pclm     = 0.5000001           
 +pdiblc1  = 1.0000000e-06       pdiblc2  = 5.0000000e-04       pdiblcb  = 1.0000000e-02       
 +drout    = 0.00                pscbe1   = 2.0000000e08        pscbe2   = 1.0000000e-06       
 +pvag     = 0.00                delta    = 1.0000000e-02       alpha0   = 0.0                 
 +alpha1   = 7.049416            beta0    = 21.5673             kt1      = -0.2967474          
 +kt2      = -3.0051107e-02      at       = 2.0000000e04        ute      = -1.3699325          
 +ua1      = 2.0399999e-09       ub1      = -2.3240355e-18      uc1      = -2.5228651e-11      
 +kt1l     = 0.00                prt      = 0                   
 +cj       = cjn3                pb       = 0.7076023
 +mj       = 0.3259624           cjsw     = cjswn3              pbsw     = 0.7076023
 +mjsw     = 0.1513672           cjswg    = cjswgn3             pbswg    = 0.7076023
 +mjswg    = 0.3513672           cgdo     = cgon3               cgso     = cgon3
 +tcj      = 0.0009923959        tcjsw    = 0.0005019466        tcjswg   = 0.0005019466   
 +tpb      = 0.001687207         tpbsw    = 0.001687207         tpbswg   = 0.001687207
 +js       = 3.93e-07            jsw      = 1.43e-12
 +n        = 1                   xti      = 3                   capmod   = 3
 +nqsmod   = 0                   xpart    = 1                   cf       = 0
 +tlev     = 1                   tlevc    = 1                   calcacm  = 1
 +sfvtflag = 0                   llc      = -0.0165             noimod   = 2
 +noia     = 1.0e20		noib     = 4.0e04	       noic	= -4.0e-13
 +em       = 3.0e07		ef       = 0.881               )

 .model nch3.2 nmos	(	lmin     = '1.200e-06-dxl3'      lmax     = '1.000e-05-dxl3'      
 +wmin     = '1.0000e-05-dxw3'                                wmax     = 900.001e-6               
 +level    = 49                  tnom     = 25.0                version  = 3.24                 
 +tox      = 'toxn3'           toxm     = 'toxn3'           xj       = 1.7000001e-07       
 +nch      = 5.2600000e17        lln      = -1                  lwn      = 1.0000000           
 +wln      = 1.0000000           wwn      = 1.0000000           lint     = 4.0000000e-08       
 +ll       = 0.00                lw       = 0.00                lwl      = 0.00                
 +wint     = 1.4999999e-08       wl       = 0.00                ww       = 0.00                
 +wwl      = 0.00                mobmod   = 1                   binunit  = 2                   
 +xl       = '-0.02e-6+dxl3'   xw       = '0.0+dxw3'        dwg      = 0.00                
 +dwb      = 0.00                acm      = 12                  ldif     = 9.00e-08            
 +hdif     = 'hdifn3'          rsh      = 'rshn3'           rd       = 0                   
 +rs       = 0                                      
 +vth0     = '0.7338805+dvthn3'
 +lvth0    = 7.2196430e-08       k1       = 0.8436294           lk1      = 8.2996260e-08       
 +k2       = 3.5836430e-02       lk2      = -3.7491980e-08      k3       = 0.00                
 +dvt0     = 0.00                dvt1     = 0.00                dvt2     = 0.00                
 +dvt0w    = 0.00                dvt1w    = 0.00                dvt2w    = 0.00                
 +nlx      = 0.00                w0       = 0.00                k3b      = 0.00                
 +vsat     = 1.0087500e05        lvsat    = -8.6625000e-03      
 +ua       = -6.5715190e-10      lua      = -2.4938983e-17      ub       = 2.3501459e-18       
 +lub      = 1.2625015e-26       uc       = 9.9987010e-11       luc      = 1.5088319e-17       
 +rdsw     = 5.4500000e02        prwb     = 0.00                prwg     = 0.00                
 +wr       = 1.0000000           u0       = 4.0144190e-02       lu0      = 2.3703481e-09       
 +a0       = 0.5985498           la0      = -2.7434131e-08      keta     = 1.3293392e-02       
 +lketa    = -2.6304601e-08      a1       = 0.00                a2       = 0.9900000           
 +ags      = 2.0000000e-02       b0       = 0.00                b1       = 0.00                
 +voff     = -0.1288763          lvoff    = 1.5525753e-08       nfactor  = 1.0000000           
 +cit      = 2.9848100e-04       lcit     = 2.4257210e-10       cdsc     = 0.00                
 +cdscb    = 0.00                cdscd    = 0.00                eta0     = 5.0055810e-06       
 +leta0    = 4.9444760e-11       etab     = -5.0055810e-06      letab    = -4.9444760e-11      
 +dsub     = 0.00                pclm     = 0.4766459           lpclm    = 2.3120668e-07       
 +pdiblc1  = 1.0000000e-06       pdiblc2  = 4.3750000e-04       lpdiblc2 = 6.1875000e-10       
 +pdiblcb  = 1.0000000e-02       drout    = 0.00                pscbe1   = 1.8500000e08        
 +lpscbe1  = 1.4850000e02        pscbe2   = 1.0000000e-06       pvag     = 0.00                
 +delta    = 1.0000000e-02       alpha0   = 0.0                 alpha1   = 7.049416            
 +beta0    = 21.5673             kt1      = -0.2975682          lkt1     = 8.1267750e-09       
 +kt2      = -3.0177854e-02      lkt2     = 1.2547903e-09       at       = 2.0000000e04        
 +ute      = -1.3824263          lute     = 1.2368807e-07       ua1      = 2.0399999e-09       
 +ub1      = -2.3458511e-18      lub1     = 2.1597545e-25       uc1      = -2.8060729e-11      
 +luc1     = 2.8037565e-17       kt1l     = 0.00                prt      = 0                   
 +cj       = cjn3                pb       = 0.7076023
 +mj       = 0.3259624           cjsw     = cjswn3              pbsw     = 0.7076023
 +mjsw     = 0.1513672           cjswg    = cjswgn3             pbswg    = 0.7076023
 +mjswg    = 0.3513672           cgdo     = cgon3               cgso     = cgon3
 +tcj      = 0.0009923959        tcjsw    = 0.0005019466        tcjswg   = 0.0005019466   
 +tpb      = 0.001687207         tpbsw    = 0.001687207         tpbswg   = 0.001687207
 +js       = 3.93e-07            jsw      = 1.43e-12
 +n        = 1                   xti      = 3                   capmod   = 3
 +nqsmod   = 0                   xpart    = 1                   cf       = 0
 +tlev     = 1                   tlevc    = 1                   calcacm  = 1
 +sfvtflag = 0                   llc      = -0.0165             noimod  = 2
 +noia     = 1.0e20		noib     = 4.0e04	       noic	= -4.0e-13
 +em       = 3.0e07		ef       = 0.881               )

 .model nch3.3 nmos	(	lmin     = '5.000e-07-dxl3'      lmax     = '1.200e-06-dxl3'      
 +wmin     = '1.0000e-05-dxw3'                                wmax     = 900.001e-6               
 +level    = 49                  tnom     = 25.0                version  = 3.24                 
 +tox      = 'toxn3'           toxm     = 'toxn3'           xj       = 1.7000001e-07       
 +nch      = 5.2600000e17        lln      = -1                  lwn      = 1.0000000           
 +wln      = 1.0000000           wwn      = 1.0000000           lint     = 4.0000000e-08       
 +ll       = 0.00                lw       = 0.00                lwl      = 0.00                
 +wint     = 1.4999999e-08       wl       = 0.00                ww       = 0.00                
 +wwl      = 0.00                mobmod   = 1                   binunit  = 2                   
 +xl       = '-0.02e-6+dxl3'   xw       = '0.0+dxw3'        dwg      = 0.00                
 +dwb      = 0.00                acm      = 12                  ldif     = 9.00e-08            
 +hdif     = 'hdifn3'          rsh      = 'rshn3'           rd       = 0                   
 +rs       = 0                                      
 +vth0     = '0.7854808+dvthn3'
 +lvth0    = 1.5436049e-08       k1       = 0.8725621           lk1      = 5.1170270e-08       
 +k2       = 2.6585609e-02       lk2      = -2.7316075e-08      k3       = 0.00                
 +dvt0     = 0.00                dvt1     = 0.00                dvt2     = 0.00                
 +dvt0w    = 0.00                dvt1w    = 0.00                dvt2w    = 0.00                
 +nlx      = 0.00                w0       = 0.00                k3b      = 0.00                
 +vsat     = 9.4142860e04        lvsat    = -1.2571429e-03      
 +ua       = -5.5044020e-10      lua      = -1.4232186e-16      ub       = 2.2213255e-18       
 +lub      = 1.5432739e-25       uc       = 8.6765090e-11       luc      = 2.9632438e-17       
 +rdsw     = 5.4500000e02        prwb     = 0.00                prwg     = 0.00                
 +wr       = 1.0000000           u0       = 4.1177810e-02       lu0      = 1.2333661e-09       
 +a0       = 0.5002358           la0      = 8.0711320e-08       keta     = 3.0733263e-03       
 +lketa    = -1.5062529e-08      a1       = 0.00                a2       = 0.9900000           
 +ags      = 4.2857150e-02       lags     = -2.5142864e-08      b0       = 0.00                
 +b1       = 0.00                voff     = -0.1181122          lvoff    = 3.6851710e-09       
 +nfactor  = 1.0000000           cit      = 5.2695760e-04       lcit     = -8.7521730e-12      
 +cdsc     = 0.00                cdscb    = 0.00                cdscd    = 0.00                
 +eta0     = -2.0721287e-04      leta0    = 2.8288508e-10       etab     = 2.0721287e-04       
 +letab    = -2.8288508e-10      dsub     = 0.00                pclm     = 0.6683022           
 +lpclm    = 2.0384716e-08       pdiblc1  = 1.0000000e-06       pdiblc2  = 9.9999980e-04       
 +pdiblcb  = 1.0000000e-02       drout    = 0.00                pscbe1   = 3.0285712e08        
 +lpscbe1  = 18.8571820          pscbe2   = 1.0000000e-06       pvag     = 0.00                
 +delta    = 1.0000000e-02       alpha0   = 0.0                 alpha1   = 7.049416            
 +beta0    = 21.5673             kt1      = -0.3058816          lkt1     = 1.7271480e-08       
 +kt2      = -3.2605510e-02      lkt2     = 3.9252180e-09       at       = 2.0000000e04        
 +ute      = -1.3841497          lute     = 1.2558385e-07       ua1      = 2.0399999e-09       
 +ub1      = -2.6782768e-18      lub1     = 5.8164370e-25       uc1      = -7.4947920e-11      
 +luc1     = 7.9613470e-17       kt1l     = 0.00                prt      = 0                   
 +cj       = cjn3                pb       = 0.7076023
 +mj       = 0.3259624           cjsw     = cjswn3              pbsw     = 0.7076023
 +mjsw     = 0.1513672           cjswg    = cjswgn3             pbswg    = 0.7076023
 +mjswg    = 0.3513672           cgdo     = cgon3               cgso     = cgon3
 +tcj      = 0.0009923959        tcjsw    = 0.0005019466        tcjswg   = 0.0005019466   
 +tpb      = 0.001687207         tpbsw    = 0.001687207         tpbswg   = 0.001687207
 +js       = 3.93e-07            jsw      = 1.43e-12
 +n        = 1                   xti      = 3                   capmod   = 3
 +nqsmod   = 0                   xpart    = 1                   cf       = 0
 +tlev     = 1                   tlevc    = 1                   calcacm  = 1
 +sfvtflag = 0                   llc      = -0.0165             noimod  = 2
 +noia     = 1.0e20		noib     = 4.0e04	       noic	= -4.0e-13
 +em       = 3.0e07		ef       = 0.881               )

 .model nch3.4 nmos	(	lmin     = 3.5e-007                 lmax     = '5.000e-07-dxl3'      
 +wmin     = '1.0000e-05-dxw3'                                wmax     = 900.001e-6               
 +level    = 49                  tnom     = 25.0                version  = 3.24                 
 +tox      = 'toxn3'           toxm     = 'toxn3'           xj       = 1.7000001e-07       
 +nch      = 5.2600000e17        lln      = -1                  lwn      = 1.0000000           
 +wln      = 1.0000000           wwn      = 1.0000000           lint     = 4.0000000e-08       
 +ll       = 0.00                lw       = 0.00                lwl      = 0.00                
 +wint     = 1.4999999e-08       wl       = 0.00                ww       = 0.00                
 +wwl      = 0.00                mobmod   = 1                   binunit  = 2                   
 +xl       = '-0.02e-6+dxl3'   xw       = '0.0+dxw3'        dwg      = 0.00                
 +dwb      = 0.00                acm      = 12                  ldif     = 9.00e-08            
 +hdif     = 'hdifn3'          rsh      = 'rshn3'           rd       = 0                   
 +rs       = 0                                      
 +vth0     = '0.8656338+dvthn3'
 +lvth0    = -1.6625165e-08      k1       = 0.7380362           lk1      = 1.0498064e-07       
 +k2       = 0.1905548           lk2      = -9.2903750e-08      k3       = 0.00                
 +dvt0     = 0.00                dvt1     = 0.00                dvt2     = 0.00                
 +dvt0w    = 0.00                dvt1w    = 0.00                dvt2w    = 0.00                
 +nlx      = 0.00                w0       = 0.00                k3b      = 0.00                
 +vsat     = 9.2662950e04        lvsat    = -6.6517710e-04      
 +ua       = -7.6742930e-10      lua      = -5.5526210e-17      ub       = 2.1708317e-18       
 +lub      = 1.7452491e-25       uc       = 2.5100996e-10       luc      = -3.6065510e-17      
 +rdsw     = 5.4500000e02        prwb     = 0.00                prwg     = 0.00                
 +wr       = 1.0000000           u0       = 4.2647680e-02       lu0      = 6.4541630e-10       
 +a0       = 0.8895671           la0      = -7.5021190e-08      keta     = -5.8208280e-02      
 +lketa    = 9.4501150e-09       a1       = 0.00                a2       = 0.9900000           
 +ags      = -2.0000029e-02      b0       = 0.00                b1       = 0.00                
 +voff     = -0.1009514          lvoff    = -3.1791380e-09      nfactor  = 1.0000000           
 +cit      = 4.9120500e-04       lcit     = 5.5488980e-12       cdsc     = 0.00                
 +cdscb    = 0.00                cdscd    = 0.00                eta0     = -1.1666669e-03      
 +leta0    = 6.6666670e-10       etab     = 3.6657390e-03       letab    = -1.6662953e-09      
 +dsub     = 0.00                pclm     = -0.1426817          lpclm    = 3.4477830e-07       
 +pdiblc1  = 1.0000000e-06       pdiblc2  = -1.0661089e-02      lpdiblc2 = 4.6644360e-09       
 +pdiblcb  = 1.0000000e-02       drout    = 0.00                pscbe1   = 3.5000020e08        
 +pscbe2   = 1.0000000e-06       pvag     = 0.00                delta    = 1.0000000e-02       
 +alpha0   = 0.0                 alpha1   = 7.049416            beta0    = 21.5673             
 +kt1      = -0.2689408          lkt1     = 2.4951499e-09       kt2      = -1.7957341e-02      
 +lkt2     = -1.9340516e-09      at       = 2.0000000e04        ute      = -1.0052726          
 +lute     = -2.5966962e-08      ua1      = 2.0399999e-09       ub1      = -1.6034720e-18      
 +lub1     = 1.5172175e-25       uc1      = 9.0686240e-11       luc1     = 1.3359813e-17       
 +kt1l     = 0.00                prt      = 0                   
 +cj       = cjn3                pb       = 0.7076023
 +mj       = 0.3259624           cjsw     = cjswn3              pbsw     = 0.7076023
 +mjsw     = 0.1513672           cjswg    = cjswgn3             pbswg    = 0.7076023
 +mjswg    = 0.3513672           cgdo     = cgon3               cgso     = cgon3
 +tcj      = 0.0009923959        tcjsw    = 0.0005019466        tcjswg   = 0.0005019466   
 +tpb      = 0.001687207         tpbsw    = 0.001687207         tpbswg   = 0.001687207
 +js       = 3.93e-07            jsw      = 1.43e-12
 +n        = 1                   xti      = 3                   capmod   = 3
 +nqsmod   = 0                   xpart    = 1                   cf       = 0
 +tlev     = 1                   tlevc    = 1                   calcacm  = 1
 +sfvtflag = 0                   llc      = -0.0165             noimod  = 2
 +noia     = 1.0e20		noib     = 4.0e04	       noic	= -4.0e-13
 +em       = 3.0e07		ef       = 0.881               )

 .model nch3.5 nmos	(	lmin     = '1.000e-05-dxl3'      lmax     = 20.001e-006              
 +wmin     = '1.2000e-06-dxw3'                                wmax     = '1.0000e-05-dxw3'      
 +level    = 49                  tnom     = 25.0                version  = 3.24                 
 +tox      = 'toxn3'           toxm     = 'toxn3'           xj       = 1.7000001e-07       
 +nch      = 5.2600000e17        lln      = -1                  lwn      = 1.0000000           
 +wln      = 1.0000000           wwn      = 1.0000000           lint     = 4.0000000e-08       
 +ll       = 0.00                lw       = 0.00                lwl      = 0.00                
 +wint     = 1.4999999e-08       wl       = 0.00                ww       = 0.00                
 +wwl      = 0.00                mobmod   = 1                   binunit  = 2                   
 +xl       = '-0.02e-6+dxl3'   xw       = '0.0+dxw3'        dwg      = 0.00                
 +dwb      = 0.00                acm      = 12                  ldif     = 9.00e-08            
 +hdif     = 'hdifn3'          rsh      = 'rshn3'           rd       = 0                   
 +rs       = 0                                      
 +vth0     = '0.7412278+dvthn3'
 +wvth0    = -5.4619160e-10      k1       = 0.8508129           wk1      = 1.1963754e-08       
 +k2       = 3.1879250e-02       wk2      = 1.6960789e-09       k3       = 0.00                
 +dvt0     = 0.00                dvt1     = 0.00                dvt2     = 0.00                
 +dvt0w    = 0.00                dvt1w    = 0.00                dvt2w    = 0.00                
 +nlx      = 0.00                w0       = 0.00                k3b      = 0.00                
 +vsat     = 1.0000000e05        ua       = -6.5888360e-10      
 +wua      = -7.8505910e-18      ub       = 2.3875394e-18       wub      = -3.6009940e-25      
 +uc       = 1.0341122e-10       wuc      = -1.8944324e-17      rdsw     = 5.4500000e02        
 +prwb     = 0.00                prwg     = 0.00                wr       = 1.0000000           
 +u0       = 4.0690960e-02       wu0      = -3.0642096e-09      a0       = 0.5914139           
 +wa0      = 4.3517560e-08       keta     = 1.0701262e-02       wketa    = -6.4705320e-10      
 +a1       = 0.00                a2       = 0.9900000           ags      = 2.0000000e-02       
 +b0       = 0.00                b1       = 0.00                voff     = -0.1275286          
 +wvoff    = 2.1983364e-09       nfactor  = 1.0000000           cit      = 3.2352310e-04       
 +wcit     = -5.3825510e-12      cdsc     = 0.00                cdscb    = 0.00                
 +cdscd    = 0.00                eta0     = 1.0000000e-05       etab     = -1.0000000e-05      
 +dsub     = 0.00                pclm     = 0.5000001           pdiblc1  = 1.0000000e-06       
 +pdiblc2  = 5.0000000e-04       pdiblcb  = 1.0000000e-02       drout    = 0.00                
 +pscbe1   = 2.0000000e08        pscbe2   = 1.0000000e-06       pvag     = 0.00                
 +delta    = 1.0000000e-02       alpha0   = 0.0                 alpha1   = 7.049416            
 +beta0    = 21.5673             kt1      = -0.2959924          wkt1     = -7.5268250e-09      
 +kt2      = -2.9950516e-02      wkt2     = -1.0028854e-09      at       = 2.0000000e04        
 +ute      = -1.3781972          wute     = 8.2399010e-08       ua1      = 2.0399999e-09       
 +ub1      = -2.3223396e-18      wub1     = -1.6908192e-26      uc1      = -1.9919816e-11      
 +wuc1     = -5.2929100e-17      kt1l     = 0.00                prt      = 0                   
 +cj       = cjn3                pb       = 0.7076023
 +mj       = 0.3259624           cjsw     = cjswn3              pbsw     = 0.7076023
 +mjsw     = 0.1513672           cjswg    = cjswgn3             pbswg    = 0.7076023
 +mjswg    = 0.3513672           cgdo     = cgon3               cgso     = cgon3
 +tcj      = 0.0009923959        tcjsw    = 0.0005019466        tcjswg   = 0.0005019466   
 +tpb      = 0.001687207         tpbsw    = 0.001687207         tpbswg   = 0.001687207
 +js       = 3.93e-07            jsw      = 1.43e-12
 +n        = 1                   xti      = 3                   capmod   = 3
 +nqsmod   = 0                   xpart    = 1                   cf       = 0
 +tlev     = 1                   tlevc    = 1                   calcacm  = 1
 +sfvtflag = 0                   llc      = -0.0165             noimod  = 2
 +noia     = 1.0e20		noib     = 4.0e04	       noic	= -4.0e-13
 +em       = 3.0e07		ef       = 0.881               )

 .model nch3.6 nmos	(	lmin     = '1.200e-06-dxl3'      lmax     = '1.000e-05-dxl3'      
 +wmin     = '1.2000e-06-dxw3'                                wmax     = '1.0000e-05-dxw3'      
 +level    = 49                  tnom     = 25.0                version  = 3.24                 
 +tox      = 'toxn3'           toxm     = 'toxn3'           xj       = 1.7000001e-07       
 +nch      = 5.2600000e17        lln      = -1                  lwn      = 1.0000000           
 +wln      = 1.0000000           wwn      = 1.0000000           lint     = 4.0000000e-08       
 +ll       = 0.00                lw       = 0.00                lwl      = 0.00                
 +wint     = 1.4999999e-08       wl       = 0.00                ww       = 0.00                
 +wwl      = 0.00                mobmod   = 1                   binunit  = 2                   
 +xl       = '-0.02e-6+dxl3'   xw       = '0.0+dxw3'        dwg      = 0.00                
 +dwb      = 0.00                acm      = 12                  ldif     = 9.00e-08            
 +hdif     = 'hdifn3'          rsh      = 'rshn3'           rd       = 0                   
 +rs       = 0                                      
 +vth0     = '0.7337149+dvthn3'
 +lvth0    = 7.4378140e-08       wvth0    = 1.6509301e-09       pvth0    = -2.1751505e-14      
 +k1       = 0.8419480           lk1      = 8.7762780e-08       wk1      = 1.6763977e-08       
 +pk1      = -4.7522210e-14      k2       = 3.5826360e-02       lk2      = -3.9076370e-08      
 +wk2      = 1.0048508e-10       pk2      = 1.5796389e-14       k3       = 0.00                
 +dvt0     = 0.00                dvt1     = 0.00                dvt2     = 0.00                
 +dvt0w    = 0.00                dvt1w    = 0.00                dvt2w    = 0.00                
 +nlx      = 0.00                w0       = 0.00                k3b      = 0.00                
 +vsat     = 1.0087500e05        lvsat    = -8.6625010e-03      
 +ua       = -6.5616190e-10      lua      = -2.6944907e-17      wua      = -9.8707010e-18      
 +pua      = 1.9999060e-23       ub       = 2.3849762e-18       lub      = 2.5376364e-26       
 +wub      = -3.4725790e-25      pub      = -1.2713090e-31      uc       = 1.0178221e-10       
 +luc      = 1.6127195e-17       wuc      = -1.7898101e-17      puc      = -1.0357598e-23      
 +rdsw     = 5.4500000e02        prwb     = 0.00                prwg     = 0.00                
 +wr       = 1.0000000           u0       = 4.0439300e-02       lu0      = 2.4913751e-09       
 +wu0      = -2.9423268e-09      pu0      = -1.2066391e-15      a0       = 0.5931649           
 +la0      = -1.7334720e-08      wa0      = 5.3688390e-08       pa0      = -1.0069116e-13      
 +keta     = 1.3365778e-02       lketa    = -2.6378700e-08      wketa    = -7.2167630e-10      
 +pketa    = 7.3875800e-16       a1       = 0.00                a2       = 0.9900000           
 +ags      = 2.0000000e-02       b0       = 0.00                b1       = 0.00                
 +voff     = -0.1290965          lvoff    = 1.5522346e-08       wvoff    = 2.1949056e-09       
 +pvoff    = 3.3964270e-17       nfactor  = 1.0000000           cit      = 2.9909017e-04       
 +lcit     = 2.4188637e-10       wcit     = -6.0731490e-12      pcit     = 6.8368810e-18       
 +cdsc     = 0.00                cdscb    = 0.00                cdscd    = 0.00                
 +eta0     = 4.3415470e-06       leta0    = 5.6018670e-11       weta0    = 6.6203900e-12       
 +peta0    = -6.5541850e-17      etab     = -4.3415470e-06      letab    = -5.6018670e-11      
 +wetab    = -6.6203900e-12      petab    = 6.5541850e-17       dsub     = 0.00                
 +pclm     = 0.4771902           lpclm    = 2.2581794e-07       wpclm    = -5.4269150e-09      
 +ppclm    = 5.3725680e-14       pdiblc1  = 1.0000000e-06       pdiblc2  = 4.3750000e-04       
 +lpdiblc2 = 6.1875000e-10       pdiblcb  = 1.0000000e-02       drout    = 0.00                
 +pscbe1   = 1.8499998e08        lpscbe1  = 1.4850002e02        pscbe2   = 1.0000000e-06       
 +pvag     = 0.00                delta    = 1.0000000e-02       alpha0   = 0.0                 
 +alpha1   = 7.049416            beta0    = 21.5673             kt1      = -0.2967275          
 +lkt1     = 7.2770190e-09       wkt1     = -8.3825920e-09      pkt1     = 8.4720740e-15       
 +kt2      = -3.0061465e-02      lkt2     = 1.0983974e-09       wkt2     = -1.1603842e-09      
 +pkt2     = 1.5592368e-15       at       = 2.0000000e04        ute      = -1.3914689          
 +lute     = 1.3138961e-07       wute     = 9.0155010e-08       pute     = -7.6784330e-14      
 +ua1      = 2.0399999e-09       ub1      = -2.3428319e-18      lub1     = 2.0287447e-25       
 +wub1     = -3.0101820e-26      pub1     = 1.3061675e-31       uc1      = -2.2305425e-11      
 +luc1     = 2.3617550e-17       wuc1     = -5.7380370e-17      puc1     = 4.4067530e-23       
 +kt1l     = 0.00                prt      = 0                   
 +cj       = cjn3                pb       = 0.7076023
 +mj       = 0.3259624           cjsw     = cjswn3              pbsw     = 0.7076023
 +mjsw     = 0.1513672           cjswg    = cjswgn3             pbswg    = 0.7076023
 +mjswg    = 0.3513672           cgdo     = cgon3               cgso     = cgon3
 +tcj      = 0.0009923959        tcjsw    = 0.0005019466        tcjswg   = 0.0005019466   
 +tpb      = 0.001687207         tpbsw    = 0.001687207         tpbswg   = 0.001687207
 +js       = 3.93e-07            jsw      = 1.43e-12
 +n        = 1                   xti      = 3                   capmod   = 3
 +nqsmod   = 0                   xpart    = 1                   cf       = 0
 +tlev     = 1                   tlevc    = 1                   calcacm  = 1
 +sfvtflag = 0                   llc      = -0.0165             noimod  = 2
 +noia     = 1.0e20		noib     = 4.0e04	       noic	= -4.0e-13
 +em       = 3.0e07		ef       = 0.881               )

 .model nch3.7 nmos	(	lmin     = '5.000e-07-dxl3'      lmax     = '1.200e-06-dxl3'      
 +wmin     = '1.2000e-06-dxw3'                                wmax     = '1.0000e-05-dxw3'      
 +level    = 49                  tnom     = 25.0                version  = 3.24                 
 +tox      = 'toxn3'           toxm     = 'toxn3'           xj       = 1.7000001e-07       
 +nch      = 5.2600000e17        lln      = -1                  lwn      = 1.0000000           
 +wln      = 1.0000000           wwn      = 1.0000000           lint     = 4.0000000e-08       
 +ll       = 0.00                lw       = 0.00                lwl      = 0.00                
 +wint     = 1.4999999e-08       wl       = 0.00                ww       = 0.00                
 +wwl      = 0.00                mobmod   = 1                   binunit  = 2                   
 +xl       = '-0.02e-6+dxl3'   xw       = '0.0+dxw3'        dwg      = 0.00                
 +dwb      = 0.00                acm      = 12                  ldif     = 9.00e-08            
 +hdif     = 'hdifn3'          rsh      = 'rshn3'           rd       = 0                   
 +rs       = 0                                      
 +vth0     = '0.7882218+dvthn3'
 +lvth0    = 1.4420463e-08       wvth0    = -2.7328070e-08      pvth0    = 1.0125395e-14       
 +k1       = 0.8741527           lk1      = 5.2337620e-08       wk1      = -1.5857541e-08      
 +pk1      = -1.1638531e-14      k2       = 2.5716120e-02       lk2      = -2.7955116e-08      
 +wk2      = 8.6687970e-09       pk2      = 6.3712410e-15       k3       = 0.00                
 +dvt0     = 0.00                dvt1     = 0.00                dvt2     = 0.00                
 +dvt0w    = 0.00                dvt1w    = 0.00                dvt2w    = 0.00                
 +nlx      = 0.00                w0       = 0.00                k3b      = 0.00                
 +vsat     = 9.4142860e04        lvsat    = -1.2571429e-03      
 +ua       = -5.5216260e-10      lua      = -1.4134407e-16      wua      = 1.7172625e-17       
 +pua      = -9.7485960e-24      ub       = 2.2626136e-18       lub      = 1.5997525e-25       
 +wub      = -4.1164150e-25      pub      = -5.6308880e-32      uc       = 8.8400200e-11       
 +luc      = 3.0847405e-17       wuc      = -1.6302085e-17      puc      = -1.2113212e-23      
 +rdsw     = 5.4500000e02        prwb     = 0.00                prwg     = 0.00                
 +wr       = 1.0000000           u0       = 4.1623130e-02       lu0      = 1.1891720e-09       
 +wu0      = -4.4398320e-09      pu0      = 4.4061720e-16       a0       = 0.5080709           
 +la0      = 7.6268660e-08       wa0      = -7.8115730e-08      pa0      = 4.4293360e-14       
 +keta     = 3.3942350e-03       lketa    = -1.5410004e-08      wketa    = -3.1994660e-09      
 +pketa    = 3.4643260e-15       a1       = 0.00                a2       = 0.9900000           
 +ags      = 4.2857140e-02       lags     = -2.5142862e-08      b0       = 0.00                
 +b1       = 0.00                voff     = -0.1178869          lvoff    = 3.1917740e-09       
 +wvoff    = -2.2461877e-09      pvoff    = 4.9191660e-15       nfactor  = 1.0000000           
 +cit      = 5.2714030e-04       lcit     = -8.9688470e-12      wcit     = -1.8216587e-12      
 +pcit     = 2.1602446e-18       cdsc     = 0.00                cdscb    = 0.00                
 +cdscd    = 0.00                eta0     = -1.9886503e-04      leta0    = 2.7954594e-10       
 +weta0    = -8.3227900e-11      peta0    = 3.3291270e-17       etab     = 1.9886503e-04       
 +letab    = -2.7954594e-10      wetab    = 8.3227900e-11       petab    = -3.3291270e-17      
 +dsub     = 0.00                pclm     = 0.6760895           lpclm    = 7.0287020e-09       
 +wpclm    = -7.7639390e-08      ppclm    = 1.3315938e-13       pdiblc1  = 1.0000000e-06       
 +pdiblc2  = 1.0042337e-03       lpdiblc2 = -4.6571500e-12      wpdiblc2 = -4.2211370e-11      
 +ppdiblc2 = 4.6432500e-17       pdiblcb  = 1.0000000e-02       drout    = 0.00                
 +pscbe1   = 3.0285712e08        lpscbe1  = 18.8571820          pscbe2   = 1.0000000e-06       
 +pvag     = 0.00                delta    = 1.0000000e-02       alpha0   = 0.0                 
 +alpha1   = 7.049416            beta0    = 21.5673             kt1      = -0.3071715          
 +lkt1     = 1.8765444e-08       wkt1     = 1.2860058e-08       pkt1     = -1.4894836e-14      
 +kt2      = -3.2976900e-02      lkt2     = 4.3053730e-09       wkt2     = 3.7026910e-09       
 +pkt2     = -3.7901450e-15      at       = 2.0000000e04        ute      = -1.4001315          
 +lute     = 1.4091844e-07       wute     = 1.5933820e-07       pute     = -1.5288584e-13      
 +ua1      = 2.0399999e-09       ub1      = -2.7388682e-18      lub1     = 6.3851440e-25       
 +wub1     = 6.0409630e-25       pub1     = -5.6700110e-31      uc1      = -7.8913690e-11      
 +luc1     = 8.5886630e-17       wuc1     = 3.9538620e-17       puc1     = -6.2543340e-23      
 +kt1l     = 0.00                prt      = 0                   
 +cj       = cjn3                pb       = 0.7076023
 +mj       = 0.3259624           cjsw     = cjswn3              pbsw     = 0.7076023
 +mjsw     = 0.1513672           cjswg    = cjswgn3             pbswg    = 0.7076023
 +mjswg    = 0.3513672           cgdo     = cgon3               cgso     = cgon3
 +tcj      = 0.0009923959        tcjsw    = 0.0005019466        tcjswg   = 0.0005019466   
 +tpb      = 0.001687207         tpbsw    = 0.001687207         tpbswg   = 0.001687207
 +js       = 3.93e-07            jsw      = 1.43e-12
 +n        = 1                   xti      = 3                   capmod   = 3
 +nqsmod   = 0                   xpart    = 1                   cf       = 0
 +tlev     = 1                   tlevc    = 1                   calcacm  = 1
 +sfvtflag = 0                   llc      = -0.0165             noimod  = 2
 +noia     = 1.0e20		noib     = 4.0e04	       noic	= -4.0e-13
 +em       = 3.0e07		ef       = 0.881               )

 .model nch3.8 nmos	(	lmin     = 3.5e-007                 lmax     = '5.000e-07-dxl3'      
 +wmin     = '1.2000e-06-dxw3'                                wmax     = '1.0000e-05-dxw3'      
 +level    = 49                  tnom     = 25.0                version  = 3.24                 
 +tox      = 'toxn3'           toxm     = 'toxn3'           xj       = 1.7000001e-07       
 +nch      = 5.2600000e17        lln      = -1                  lwn      = 1.0000000           
 +wln      = 1.0000000           wwn      = 1.0000000           lint     = 4.0000000e-08       
 +ll       = 0.00                lw       = 0.00                lwl      = 0.00                
 +wint     = 1.4999999e-08       wl       = 0.00                ww       = 0.00                
 +wwl      = 0.00                mobmod   = 1                   binunit  = 2                   
 +xl       = '-0.02e-6+dxl3'   xw       = '0.0+dxw3'        dwg      = 0.00                
 +dwb      = 0.00                acm      = 12                  ldif     = 9.00e-08            
 +hdif     = 'hdifn3'          rsh      = 'rshn3'           rd       = 0                   
 +rs       = 0                                      
 +vth0     = '0.8659324+dvthn3'
 +lvth0    = -1.6663769e-08      wvth0    = -2.9767808e-09      pvth0    = 3.8488080e-16       
 +k1       = 0.7465155           lk1      = 1.0339250e-07       wk1      = -8.4537670e-08      
 +pk1      = 1.5833523e-14       k2       = 0.1900880           lk2      = -9.3703870e-08      
 +wk2      = 4.6535320e-09       pk2      = 7.9773500e-15       k3       = 0.00                
 +dvt0     = 0.00                dvt1     = 0.00                dvt2     = 0.00                
 +dvt0w    = 0.00                dvt1w    = 0.00                dvt2w    = 0.00                
 +nlx      = 0.00                w0       = 0.00                k3b      = 0.00                
 +vsat     = 9.3130330e04        lvsat    = -8.5213050e-04      
 +wvsat    = -4.6598160e-03      pvsat    = 1.8639263e-09       ua       = -6.7444880e-10      
 +lua      = -9.2429640e-17      wua      = -9.2701740e-16      pua      = 3.6792740e-22       
 +ub       = 2.1189834e-18       lub      = 2.1742727e-25       wub      = 5.1692720e-25       
 +pub      = -4.2773630e-31      uc       = 2.6250338e-10       luc      = -3.8793870e-17      
 +wuc      = -1.1458971e-16      puc      = 2.7201846e-23       rdsw     = 5.4500000e02        
 +prwb     = 0.00                prwg     = 0.00                wr       = 1.0000000           
 +u0       = 4.3624590e-02       lu0      = 3.8858720e-10       wu0      = -9.7397600e-09      
 +pu0      = 2.5605882e-15       a0       = 0.8771189           la0      = -7.1350570e-08      
 +wa0      = 1.2410786e-07       pa0      = -3.6596080e-14      keta     = -5.3992410e-02      
 +lketa    = 7.5446550e-09       wketa    = -4.2032270e-08      pketa    = 1.8997448e-14       
 +a1       = 0.00                a2       = 0.9900000           ags      = -2.0000029e-02      
 +b0       = 0.00                b1       = 0.00                voff     = -0.1004960          
 +lvoff    = -3.7645670e-09      wvoff    = -4.5400990e-09      pvoff    = 5.8367300e-15       
 +nfactor  = 1.0000000           cit      = 4.8816460e-04       lcit     = 6.6214410e-12       
 +wcit     = 3.0312121e-11       pcit     = -1.0693267e-17      cdsc     = 0.00                
 +cdscb    = 0.00                cdscd    = 0.00                eta0     = -1.1666667e-03      
 +leta0    = 6.6666660e-10       etab     = 3.7764110e-03       letab    = -1.7105642e-09      
 +wetab    = -1.1034047e-09      petab    = 4.4136180e-16       dsub     = 0.00                
 +pclm     = -0.2024819          lpclm    = 3.5845730e-07       wpclm    = 5.9620970e-07       
 +ppclm    = -1.3638029e-13      pdiblc1  = 1.0000000e-06       pdiblc2  = -1.1344876e-02      
 +lpdiblc2 = 4.9349870e-09       wpdiblc2 = 6.8173790e-09       ppdiblc2 = -2.6974037e-15      
 +pdiblcb  = 1.0000000e-02       drout    = 0.00                pscbe1   = 3.5000020e08        
 +pscbe2   = 1.0000000e-06       pvag     = 0.00                delta    = 1.0000000e-02       
 +alpha0   = 0.0                 alpha1   = 7.049416            beta0    = 21.5673             
 +kt1      = -0.2558013          lkt1     = -1.7826350e-09      wkt1     = -1.3100086e-07      
 +pkt1     = 4.2649530e-14       kt2      = -1.8057920e-02      lkt2     = -1.6622183e-09      
 +wkt2     = 1.0027706e-09       pkt2     = -2.7101770e-15      at       = 2.0123486e04        
 +lat      = -4.9394840e-05      wat      = -1.2311670e-03      pat      = 4.9246680e-10       
 +ute      = -1.0240370          lute     = -9.5193410e-09      wute     = 1.8708050e-07       
 +pute     = -1.6398275e-13      ua1      = 2.0380289e-09       lua1     = 7.8843000e-19       
 +wua1     = 1.9651618e-17       pua1     = -7.8606470e-24      ub1      = -1.5444776e-18      
 +lub1     = 1.6075813e-25       wub1     = -5.8817450e-25      pub1     = -9.0092720e-32      
 +uc1      = 1.0033722e-10       luc1     = 1.4186265e-17       wuc1     = -9.6220470e-17      
 +puc1     = -8.2396960e-24      kt1l     = 0.00                prt      = 0                   
 +cj       = cjn3                pb       = 0.7076023
 +mj       = 0.3259624           cjsw     = cjswn3              pbsw     = 0.7076023
 +mjsw     = 0.1513672           cjswg    = cjswgn3             pbswg    = 0.7076023
 +mjswg    = 0.3513672           cgdo     = cgon3               cgso     = cgon3
 +tcj      = 0.0009923959        tcjsw    = 0.0005019466        tcjswg   = 0.0005019466   
 +tpb      = 0.001687207         tpbsw    = 0.001687207         tpbswg   = 0.001687207
 +js       = 3.93e-07            jsw      = 1.43e-12
 +n        = 1                   xti      = 3                   capmod   = 3
 +nqsmod   = 0                   xpart    = 1                   cf       = 0
 +tlev     = 1                   tlevc    = 1                   calcacm  = 1
 +sfvtflag = 0                   llc      = -0.0165             noimod  = 2
 +noia     = 1.0e20		noib     = 4.0e04	       noic	= -4.0e-13
 +em       = 3.0e07		ef       = 0.881               )

 .model nch3.9 nmos	(	lmin     = '1.000e-05-dxl3'      lmax     = 20.001e-006              
 +wmin     = '5.0000e-07-dxw3'                                wmax     = '1.2000e-06-dxw3'      
 +level    = 49                  tnom     = 25.0                version  = 3.24                 
 +tox      = 'toxn3'           toxm     = 'toxn3'           xj       = 1.7000001e-07       
 +nch      = 5.2600000e17        lln      = -1                  lwn      = 1.0000000           
 +wln      = 1.0000000           wwn      = 1.0000000           lint     = 4.0000000e-08       
 +ll       = 0.00                lw       = 0.00                lwl      = 0.00                
 +wint     = 1.4999999e-08       wl       = 0.00                ww       = 0.00                
 +wwl      = 0.00                mobmod   = 1                   binunit  = 2                   
 +xl       = '-0.02e-6+dxl3'   xw       = '0.0+dxw3'        dwg      = 0.00                
 +dwb      = 0.00                acm      = 12                  ldif     = 9.00e-08            
 +hdif     = 'hdifn3'          rsh      = 'rshn3'           rd       = 0                   
 +rs       = 0                                      
 +vth0     = '0.7453005+dvthn3'
 +wvth0    = -5.3112130e-09      k1       = 0.8604288           wk1      = 7.1317190e-10       
 +k2       = 3.3322110e-02       wk2      = 7.9219850e-12       k3       = 0.00                
 +dvt0     = 0.00                dvt1     = 0.00                dvt2     = 0.00                
 +dvt0w    = 0.00                dvt1w    = 0.00                dvt2w    = 0.00                
 +nlx      = 0.00                w0       = 0.00                k3b      = 0.00                
 +vsat     = 1.0000000e05        ua       = -6.8333380e-10      
 +wua      = 2.0756087e-17       ub       = 2.1833304e-18       wub      = -1.2117484e-25      
 +uc       = 9.6601420e-11       wuc      = -1.0976857e-17      rdsw     = 5.4500000e02        
 +prwb     = 0.00                prwg     = 0.00                wr       = 1.0000000           
 +u0       = 3.7005090e-02       wu0      = 1.2482622e-09       a0       = 0.6158070           
 +wa0      = 1.4977592e-08       keta     = 1.0741917e-02       wketa    = -6.9461940e-10      
 +a1       = 0.00                a2       = 0.9900000           ags      = 2.0000000e-02       
 +b0       = 0.00                b1       = 0.00                voff     = -0.1248287          
 +wvoff    = -9.6051810e-10      nfactor  = 1.0000000           cit      = 1.9465643e-04       
 +wcit     = 1.4539148e-10       cdsc     = 0.00                cdscb    = 0.00                
 +cdscd    = 0.00                eta0     = 1.0000000e-05       etab     = -1.0000000e-05      
 +dsub     = 0.00                pclm     = 0.5000000           pdiblc1  = 1.0000000e-06       
 +pdiblc2  = 5.0000000e-04       pdiblcb  = 1.0000000e-02       drout    = 0.00                
 +pscbe1   = 2.0000000e08        pscbe2   = 1.0000000e-06       pvag     = 0.00                
 +delta    = 1.0000000e-02       alpha0   = 0.0                 alpha1   = 7.049416            
 +beta0    = 21.5673             kt1      = -0.3068818          wkt1     = 5.2137960e-09       
 +kt2      = -3.1908540e-02      wkt2     = 1.2880030e-09       at       = 2.0000000e04        
 +ute      = -1.3297856          wute     = 2.5757439e-08       ua1      = 2.0399999e-09       
 +ub1      = -2.2946240e-18      wub1     = -4.9335480e-26      uc1      = -4.8472800e-11      
 +wuc1     = -1.9522108e-17      kt1l     = 0.00                prt      = 0                   
 +cj       = cjn3                pb       = 0.7076023
 +mj       = 0.3259624           cjsw     = cjswn3              pbsw     = 0.7076023
 +mjsw     = 0.1513672           cjswg    = cjswgn3             pbswg    = 0.7076023
 +mjswg    = 0.3513672           cgdo     = cgon3               cgso     = cgon3
 +tcj      = 0.0009923959        tcjsw    = 0.0005019466        tcjswg   = 0.0005019466   
 +tpb      = 0.001687207         tpbsw    = 0.001687207         tpbswg   = 0.001687207
 +js       = 3.93e-07            jsw      = 1.43e-12
 +n        = 1                   xti      = 3                   capmod   = 3
 +nqsmod   = 0                   xpart    = 1                   cf       = 0
 +tlev     = 1                   tlevc    = 1                   calcacm  = 1
 +sfvtflag = 0                   llc      = -0.0165             noimod  = 2
 +noia     = 1.0e20		noib     = 4.0e04	       noic	= -4.0e-13
 +em       = 3.0e07		ef       = 0.881               )

 .model nch3.10 nmos	(	lmin     = '1.200e-06-dxl3'      lmax     = '1.000e-05-dxl3'      
 +wmin     = '5.0000e-07-dxw3'                                wmax     = '1.2000e-06-dxw3'      
 +level    = 49                  tnom     = 25.0                version  = 3.24                 
 +tox      = 'toxn3'           toxm     = 'toxn3'           xj       = 1.7000001e-07       
 +nch      = 5.2600000e17        lln      = -1                  lwn      = 1.0000000           
 +wln      = 1.0000000           wwn      = 1.0000000           lint     = 4.0000000e-08       
 +ll       = 0.00                lw       = 0.00                lwl      = 0.00                
 +wint     = 1.4999999e-08       wl       = 0.00                ww       = 0.00                
 +wwl      = 0.00                mobmod   = 1                   binunit  = 2                   
 +xl       = '-0.02e-6+dxl3'   xw       = '0.0+dxw3'        dwg      = 0.00                
 +dwb      = 0.00                acm      = 12                  ldif     = 9.00e-08            
 +hdif     = 'hdifn3'          rsh      = 'rshn3'           rd       = 0                   
 +rs       = 0                                      
 +vth0     = '0.7392390+dvthn3'
 +lvth0    = 6.0008470e-08       wvth0    = -4.8123240e-09      pvth0    = -4.9390020e-15      
 +k1       = 0.8554150           lk1      = 4.9636120e-08       wk1      = 1.0075173e-09       
 +pk1      = -2.9140208e-15      k2       = 3.5897850e-02       lk2      = -2.5499832e-08      
 +wk2      = 1.6827269e-11       pk2      = -8.8160490e-17      k3       = 0.00                
 +dvt0     = 0.00                dvt1     = 0.00                dvt2     = 0.00                
 +dvt0w    = 0.00                dvt1w    = 0.00                dvt2w    = 0.00                
 +nlx      = 0.00                w0       = 0.00                k3b      = 0.00                
 +vsat     = 1.0087500e05        lvsat    = -8.6625000e-03      
 +ua       = -6.8346730e-10      lua      = 1.3221220e-18       wua      = 2.2076628e-17       
 +pua      = -1.3073367e-23      ub       = 2.1908280e-18       lub      = -7.4224610e-26      
 +wub      = -1.2010437e-25      pub      = -1.0597751e-32      uc       = 9.5323490e-11       
 +luc      = 1.2651537e-17       wuc      = -1.0341395e-17      puc      = -6.2910760e-24      
 +rdsw     = 5.4500000e02        prwb     = 0.00                prwg     = 0.00                
 +wr       = 1.0000000           u0       = 3.6837630e-02       lu0      = 1.6578280e-09       
 +wu0      = 1.2716347e-09       pu0      = -2.3138870e-16      a0       = 0.6236824           
 +la0      = -7.7966580e-08      wa0      = 1.7982831e-08       pa0      = -2.9751866e-14      
 +keta     = 1.3718577e-02       lketa    = -2.9468925e-08      wketa    = -1.1344492e-09      
 +pketa    = 4.3543190e-15       a1       = 0.00                a2       = 0.9900000           
 +ags      = 2.0000000e-02       b0       = 0.00                b1       = 0.00                
 +voff     = -0.1265495          lvoff    = 1.7036285e-08       wvoff    = -7.8502870e-10      
 +pvoff    = -1.7373450e-15      nfactor  = 1.0000000           cit      = 1.5283188e-04       
 +lcit     = 4.1406270e-10       wcit     = 1.6504902e-10       pcit     = -1.9460947e-16      
 +cdsc     = 0.00                cdscb    = 0.00                cdscd    = 0.00                
 +eta0     = 1.0000000e-05       etab     = -1.0000000e-05      dsub     = 0.00                
 +pclm     = 0.4768089           lpclm    = 2.2959227e-07       wpclm    = -4.9807780e-09      
 +ppclm    = 4.9309700e-14       pdiblc1  = 1.0000000e-06       pdiblc2  = 4.3750000e-04       
 +lpdiblc2 = 6.1875000e-10       pdiblcb  = 1.0000000e-02       drout    = 0.00                
 +pscbe1   = 1.8500000e08        lpscbe1  = 1.4850000e02        pscbe2   = 1.0000000e-06       
 +pvag     = 0.00                delta    = 1.0000000e-02       alpha0   = 0.0                 
 +alpha1   = 7.049416            beta0    = 21.5673             kt1      = -0.3090271          
 +lkt1     = 2.1238611e-08       wkt1     = 6.0080370e-09       pkt1     = -7.8629890e-15      
 +kt2      = -3.2233010e-02      lkt2     = 3.2122820e-09       wkt2     = 1.3803272e-09       
 +pkt2     = -9.1400860e-16      at       = 2.0000000e04        ute      = -1.3385403          
 +lute     = 8.6671380e-08       wute     = 2.8228550e-08       pute     = -2.4463984e-14      
 +ua1      = 2.0399999e-09       ub1      = -2.3244689e-18      lub1     = 2.9546524e-25       
 +wub1     = -5.1586550e-26      pub1     = 2.2285513e-32       uc1      = -5.3462490e-11      
 +luc1     = 4.9397990e-17       wuc1     = -2.0926594e-17      puc1     = 1.3904406e-23       
 +kt1l     = 0.00                prt      = 0                   
 +cj       = cjn3                pb       = 0.7076023
 +mj       = 0.3259624           cjsw     = cjswn3              pbsw     = 0.7076023
 +mjsw     = 0.1513672           cjswg    = cjswgn3             pbswg    = 0.7076023
 +mjswg    = 0.3513672           cgdo     = cgon3               cgso     = cgon3
 +tcj      = 0.0009923959        tcjsw    = 0.0005019466        tcjswg   = 0.0005019466   
 +tpb      = 0.001687207         tpbsw    = 0.001687207         tpbswg   = 0.001687207
 +js       = 3.93e-07            jsw      = 1.43e-12
 +n        = 1                   xti      = 3                   capmod   = 3
 +nqsmod   = 0                   xpart    = 1                   cf       = 0
 +tlev     = 1                   tlevc    = 1                   calcacm  = 1
 +sfvtflag = 0                   llc      = -0.0165             noimod  = 2
 +noia     = 1.0e20		noib     = 4.0e04	       noic	= -4.0e-13
 +em       = 3.0e07		ef       = 0.881               )

 .model nch3.11 nmos	(	lmin     = '5.000e-07-dxl3'      lmax     = '1.200e-06-dxl3'      
 +wmin     = '5.0000e-07-dxw3'                                wmax     = '1.2000e-06-dxw3'      
 +level    = 49                  tnom     = 25.0                version  = 3.24                 
 +tox      = 'toxn3'           toxm     = 'toxn3'           xj       = 1.7000001e-07       
 +nch      = 5.2600000e17        lln      = -1                  lwn      = 1.0000000           
 +wln      = 1.0000000           wwn      = 1.0000000           lint     = 4.0000000e-08       
 +ll       = 0.00                lw       = 0.00                lwl      = 0.00                
 +wint     = 1.4999999e-08       wl       = 0.00                ww       = 0.00                
 +wwl      = 0.00                mobmod   = 1                   binunit  = 2                   
 +xl       = '-0.02e-6+dxl3'   xw       = '0.0+dxw3'        dwg      = 0.00                
 +dwb      = 0.00                acm      = 12                  ldif     = 9.00e-08            
 +hdif     = 'hdifn3'          rsh      = 'rshn3'           rd       = 0                   
 +rs       = 0                                      
 +vth0     = '0.7679389+dvthn3'
 +lvth0    = 2.8438597e-08       wvth0    = -3.5970320e-09      pvth0    = -6.2758240e-15      
 +k1       = 0.8724138           lk1      = 3.0937503e-08       wk1      = -1.3823059e-08      
 +pk1      = 1.3399614e-14       k2       = 2.7055200e-02       lk2      = -1.5772912e-08      
 +wk2      = 7.1020800e-09       pk2      = -7.8819390e-15      k3       = 0.00                
 +dvt0     = 0.00                dvt1     = 0.00                dvt2     = 0.00                
 +dvt0w    = 0.00                dvt1w    = 0.00                dvt2w    = 0.00                
 +nlx      = 0.00                w0       = 0.00                k3b      = 0.00                
 +vsat     = 9.4142860e04        lvsat    = -1.2571429e-03      
 +ua       = -5.2107010e-10      lua      = -1.7731486e-16      wua      = -1.9205736e-17      
 +pua      = 3.2337230e-23       ub       = 1.9324246e-18       lub      = 2.1001913e-25       
 +wub      = -2.5320272e-26      pub      = -1.1486027e-31      uc       = 7.7848640e-11       
 +luc      = 3.1873880e-17       wuc      = -3.9567560e-18      puc      = -1.3314180e-23      
 +rdsw     = 5.4500000e02        prwb     = 0.00                prwg     = 0.00                
 +wr       = 1.0000000           u0       = 3.6962610e-02       lu0      = 1.5203439e-09       
 +wu0      = 1.0129666e-09       pu0      = 5.3146080e-17       a0       = 0.4526256           
 +la0      = 1.1019587e-07       wa0      = -1.3244798e-08      pa0      = 4.5985210e-15       
 +keta     = 1.3228342e-03       lketa    = -1.5833610e-08      wketa    = -7.7593030e-10      
 +pketa    = 3.9599480e-15       a1       = 0.00                a2       = 0.9900000           
 +ags      = 4.2857150e-02       lags     = -2.5142864e-08      b0       = 0.00                
 +b1       = 0.00                voff     = -0.1177271          lvoff    = 7.3315800e-09       
 +wvoff    = -2.4331537e-09      pvoff    = 7.5592520e-17       nfactor  = 1.0000000           
 +cit      = 5.4556720e-04       lcit     = -1.7946093e-11      wcit     = -2.3381097e-11      
 +pcit     = 1.2663624e-17       cdsc     = 0.00                cdscb    = 0.00                
 +cdscd    = 0.00                eta0     = -2.6999993e-04      leta0    = 3.0799999e-10       
 +etab     = 2.6999993e-04       letab    = -3.0799999e-10      dsub     = 0.00                
 +pclm     = 0.6877513           lpclm    = -2.4444284e-09      wpclm    = -9.1283720e-08      
 +ppclm    = 1.4424296e-13       pdiblc1  = 1.0000000e-06       pdiblc2  = 1.3304478e-03       
 +lpdiblc2 = -3.6349270e-10      wpdiblc2 = -4.2388190e-10      ppdiblc2 = 4.6627010e-16       
 +pdiblcb  = 1.0000000e-02       drout    = 0.00                pscbe1   = 3.0285712e08        
 +lpscbe1  = 18.8571820          pscbe2   = 1.0000000e-06       pvag     = 0.00                
 +delta    = 1.0000000e-02       alpha0   = 0.0                 alpha1   = 7.049416            
 +beta0    = 21.5673             kt1      = -0.2803507          lkt1     = -1.0305442e-08      
 +wkt1     = -1.8520229e-08      pkt1     = 1.9118106e-14       kt2      = -2.7456122e-02      
 +lkt2     = -2.0422997e-09      wkt2     = -2.7566189e-09      pkt2     = 3.6366320e-15       
 +at       = 2.0000000e04        ute      = -1.2687004          lute     = 9.8474450e-09       
 +wute     = 5.5637800e-09       pute     = 4.6726310e-16       ua1      = 2.0399999e-09       
 +ub1      = -2.1894782e-18      lub1     = 1.4697553e-25       wub1     = -3.8690170e-26      
 +pub1     = 8.0994940e-33       uc1      = -3.5313570e-11      luc1     = 2.9434180e-17       
 +wuc1     = -1.1473530e-17      puc1     = 3.5060390e-24       kt1l     = 0.00                
 +prt      = 0                   cj       = cjn3                pb       = 0.7076023
 +mj       = 0.3259624           cjsw     = cjswn3              pbsw     = 0.7076023
 +mjsw     = 0.1513672           cjswg    = cjswgn3             pbswg    = 0.7076023
 +mjswg    = 0.3513672           cgdo     = cgon3               cgso     = cgon3
 +tcj      = 0.0009923959        tcjsw    = 0.0005019466        tcjswg   = 0.0005019466   
 +tpb      = 0.001687207         tpbsw    = 0.001687207         tpbswg   = 0.001687207
 +js       = 3.93e-07            jsw      = 1.43e-12
 +n        = 1                   xti      = 3                   capmod   = 3
 +nqsmod   = 0                   xpart    = 1                   cf       = 0
 +tlev     = 1                   tlevc    = 1                   calcacm  = 1
 +sfvtflag = 0                   llc      = -0.0165             noimod  = 2
 +noia     = 1.0e20		noib     = 4.0e04	       noic	= -4.0e-13
 +em       = 3.0e07		ef       = 0.881               )

 .model nch3.12 nmos	(	lmin     = 3.5e-007                 lmax     = '5.000e-07-dxl3'      
 +wmin     = '5.0000e-07-dxw3'                                wmax     = '1.2000e-06-dxw3'      
 +level    = 49                  tnom     = 25.0                version  = 3.24                 
 +tox      = 'toxn3'           toxm     = 'toxn3'           xj       = 1.7000001e-07       
 +nch      = 5.2600000e17        lln      = -1                  lwn      = 1.0000000           
 +wln      = 1.0000000           wwn      = 1.0000000           lint     = 4.0000000e-08       
 +ll       = 0.00                lw       = 0.00                lwl      = 0.00                
 +wint     = 1.4999999e-08       wl       = 0.00                ww       = 0.00                
 +wwl      = 0.00                mobmod   = 1                   binunit  = 2                   
 +xl       = '-0.02e-6+dxl3'   xw       = '0.0+dxw3'        dwg      = 0.00                
 +dwb      = 0.00                acm      = 12                  ldif     = 9.00e-08            
 +hdif     = 'hdifn3'          rsh      = 'rshn3'           rd       = 0                   
 +rs       = 0                                      
 +vth0     = '0.9005772+dvthn3'
 +lvth0    = -2.4616741e-08      wvth0    = -4.3511230e-08      pvth0    = 9.6898540e-15       
 +k1       = 0.6045249           lk1      = 1.3809307e-07       wk1      = 8.1591280e-08       
 +pk1      = -2.4766122e-14      k2       = 0.2179352           lk2      = -9.2124900e-08      
 +wk2      = -2.7927635e-08      pk2      = 6.1299460e-15       k3       = 0.00                
 +dvt0     = 0.00                dvt1     = 0.00                dvt2     = 0.00                
 +dvt0w    = 0.00                dvt1w    = 0.00                dvt2w    = 0.00                
 +nlx      = 0.00                w0       = 0.00                k3b      = 0.00                
 +vsat     = 9.2204430e04        lvsat    = -4.8177310e-04      
 +wvsat    = -3.5765190e-03      pvsat    = 1.4306075e-09       ua       = -1.5704804e-09      
 +lua      = 2.4244926e-16       wua      = 1.2133967e-16       pua      = -2.3880921e-23      
 +ub       = 2.4269640e-18       lub      = 1.2203315e-26       wub      = 1.5658978e-25       
 +pub      = -1.8762427e-31      uc       = 1.6513216e-10       luc      = -3.0395374e-18      
 +wuc      = -6.6537900e-19      puc      = -1.4630729e-23      rdsw     = 5.4500000e02        
 +prwb     = 0.00                prwg     = 0.00                wr       = 1.0000000           
 +u0       = 3.7385670e-02       lu0      = 1.3511215e-09       wu0      = -2.4402242e-09      
 +pu0      = 1.4344223e-15       a0       = 0.8126235           la0      = -3.3803300e-08      
 +wa0      = 1.9956742e-07       pa0      = -8.0526360e-14      keta     = -0.1224256          
 +lketa    = 3.3665760e-08       wketa    = 3.8034560e-08       pketa    = -1.1564247e-14      
 +a1       = 0.00                a2       = 0.9900000           ags      = -1.6226115e-02      
 +lags     = -1.5095589e-09      wags     = -4.4154800e-09      pags     = 1.7661922e-15       
 +b0       = 0.00                b1       = 0.00                voff     = -9.9843290e-02      
 +lvoff    = 1.7806077e-10       wvoff    = -5.3038090e-09      pvoff    = 1.2238547e-15       
 +nfactor  = 1.0000000           cit      = 4.9520520e-04       lcit     = 2.1987145e-12       
 +wcit     = 2.2074649e-11       pcit     = -5.5186740e-18      cdsc     = 0.00                
 +cdscb    = 0.00                cdscd    = 0.00                eta0     = -1.1666662e-03      
 +leta0    = 6.6666650e-10       etab     = 2.8333291e-03       letab    = -1.3333316e-09      
 +dsub     = 0.00                pclm     = -4.2756410e-02      lpclm    = 2.8975865e-07       
 +wpclm    = 4.0933080e-07       ppclm    = -5.6002840e-14      pdiblc1  = 1.0000000e-06       
 +pdiblc2  = -7.2087520e-03      lpdiblc2 = 3.0521874e-09       wpdiblc2 = 1.9781137e-09       
 +ppdiblc2 = -4.9452820e-16      pdiblcb  = 1.0000000e-02       drout    = 0.00                
 +pscbe1   = 3.5000020e08        pscbe2   = 1.0000000e-06       pvag     = 0.00                
 +delta    = 1.0000000e-02       alpha0   = 0.0                 alpha1   = 7.049416            
 +beta0    = 21.5673             kt1      = -0.4885682          lkt1     = 7.2981510e-08       
 +wkt1     = 1.4133636e-07       pkt1     = -4.4824520e-14      kt2      = -2.8753173e-02      
 +lkt2     = -1.5234798e-09      wkt2     = 1.3516213e-08       pkt2     = -2.8725001e-15      
 +at       = 3.0581551e04        lat      = -4.2326190e-03      wat      = -1.3467096e-02      
 +pat      = 5.3868380e-09       ute      = -0.7753763          lute     = -1.8748216e-07      
 +wute     = -1.0385240e-07      pute     = 4.4233730e-14       ua1      = 1.7494718e-09       
 +lua1     = 1.1621127e-16       wua1     = 3.5726330e-16       pua1     = -1.4290532e-22      
 +ub1      = -1.3971897e-18      lub1     = -1.6993981e-25      wub1     = -7.6050110e-25      
 +pub1     = 2.9682384e-31       uc1      = 6.9721260e-11       luc1     = -1.2579750e-17      
 +wuc1     = -6.0399780e-17      puc1     = 2.3076537e-23       kt1l     = 0.00                
 +prt      = 0                   cj       = cjn3                pb       = 0.7076023
 +mj       = 0.3259624           cjsw     = cjswn3              pbsw     = 0.7076023
 +mjsw     = 0.1513672           cjswg    = cjswgn3             pbswg    = 0.7076023
 +mjswg    = 0.3513672           cgdo     = cgon3               cgso     = cgon3
 +tcj      = 0.0009923959        tcjsw    = 0.0005019466        tcjswg   = 0.0005019466   
 +tpb      = 0.001687207         tpbsw    = 0.001687207         tpbswg   = 0.001687207
 +js       = 3.93e-07            jsw      = 1.43e-12
 +n        = 1                   xti      = 3                   capmod   = 3
 +nqsmod   = 0                   xpart    = 1                   cf       = 0
 +tlev     = 1                   tlevc    = 1                   calcacm  = 1
 +sfvtflag = 0                   llc      = -0.0165             noimod  = 2
 +noia     = 1.0e20		noib     = 4.0e04	       noic	= -4.0e-13
 +em       = 3.0e07		ef       = 0.881               )

 .model nch3.13 nmos	(	lmin     = '1.000e-05-dxl3'      lmax     = 20.001e-006              
 +wmin     = 2.2e-007                                           wmax     = '5.0000e-07-dxw3'      
 +level    = 49                  tnom     = 25.0                version  = 3.24                 
 +tox      = 'toxn3'           toxm     = 'toxn3'           xj       = 1.7000001e-07       
 +nch      = 5.2600000e17        lln      = -1                  lwn      = 1.0000000           
 +wln      = 1.0000000           wwn      = 1.0000000           lint     = 4.0000000e-08       
 +ll       = 0.00                lw       = 0.00                lwl      = 0.00                
 +wint     = 1.4999999e-08       wl       = 0.00                ww       = 0.00                
 +wwl      = 0.00                mobmod   = 1                   binunit  = 2                   
 +xl       = '-0.02e-6+dxl3'   xw       = '0.0+dxw3'        dwg      = 0.00                
 +dwb      = 0.00                acm      = 12                  ldif     = 9.00e-08            
 +hdif     = 'hdifn3'          rsh      = 'rshn3'           rd       = 0                   
 +rs       = 0                                     
 +vth0     = '0.7828572+dvthn3'
 +wvth0    = -2.2962862e-08      k1       = 0.8670291           wk1      = -2.3889963e-09      
 +k2       = 3.3539240e-02       wk2      = -9.4124950e-11      k3       = 0.00                
 +dvt0     = 0.00                dvt1     = 0.00                dvt2     = 0.00                
 +dvt0w    = 0.00                dvt1w    = 0.00                dvt2w    = 0.00                
 +nlx      = 0.00                w0       = 0.00                k3b      = 0.00                
 +vsat     = 1.0000000e05        ua       = -7.5109630e-10      
 +wua      = 5.2604480e-17       ub       = 2.0614427e-18       wub      = -6.3887530e-26      
 +uc       = 9.9038940e-11       wuc      = -1.2122493e-17      rdsw     = 5.4500000e02        
 +prwb     = 0.00                prwg     = 0.00                wr       = 1.0000000           
 +u0       = 3.6716620e-02       wu0      = 1.3838430e-09       a0       = 0.6640292           
 +wa0      = -7.6868640e-09      keta     = 1.4611328e-02       wketa    = -2.5132423e-09      
 +a1       = 0.00                a2       = 0.9900000           ags      = 2.0000000e-02       
 +b0       = 0.00                b1       = 0.00                voff     = -0.1274730          
 +wvoff    = 2.8231190e-10       nfactor  = 1.0000000           cit      = 5.0400000e-04       
 +cdsc     = 0.00                cdscb    = 0.00                cdscd    = 0.00                
 +eta0     = 1.0000000e-05       etab     = -1.0000000e-05      dsub     = 0.00                
 +pclm     = 0.5000000           pdiblc1  = 1.0000000e-06       pdiblc2  = 5.0000000e-04       
 +pdiblcb  = 1.0000000e-02       drout    = 0.00                pscbe1   = 2.0000000e08        
 +pscbe2   = 1.0000000e-06       pvag     = 0.00                delta    = 1.0000000e-02       
 +alpha0   = 0.0                 alpha1   = 7.049416            beta0    = 21.5673             
 +kt1      = -0.2971856          wkt1     = 6.5657340e-10       kt2      = -2.7439827e-02      
 +wkt2     = -8.1229250e-10      at       = 2.0000000e04        ute      = -1.2430322          
 +wute     = -1.5016651e-08      ua1      = 2.0399999e-09       ub1      = -2.1566485e-18      
 +wub1     = -1.1418396e-25      uc1      = -5.2926640e-11      wuc1     = -1.7428805e-17      
 +kt1l     = 0.00                prt      = 0                   
 +cj       = cjn3                pb       = 0.7076023
 +mj       = 0.3259624           cjsw     = cjswn3              pbsw     = 0.7076023
 +mjsw     = 0.1513672           cjswg    = cjswgn3             pbswg    = 0.7076023
 +mjswg    = 0.3513672           cgdo     = cgon3               cgso     = cgon3
 +tcj      = 0.0009923959        tcjsw    = 0.0005019466        tcjswg   = 0.0005019466   
 +tpb      = 0.001687207         tpbsw    = 0.001687207         tpbswg   = 0.001687207
 +js       = 3.93e-07            jsw      = 1.43e-12
 +n        = 1                   xti      = 3                   capmod   = 3
 +nqsmod   = 0                   xpart    = 1                   cf       = 0
 +tlev     = 1                   tlevc    = 1                   calcacm  = 1
 +sfvtflag = 0                   llc      = -0.0165             noimod  = 2
 +noia     = 1.0e20		noib     = 4.0e04	       noic	= -4.0e-13
 +em       = 3.0e07		ef       = 0.881               )

 .model nch3.14 nmos	(	lmin     = '1.200e-06-dxl3'      lmax     = '1.000e-05-dxl3'      
 +wmin     = 2.2e-007                                           wmax     = '5.0000e-07-dxw3'      
 +level    = 49                  tnom     = 25.0                version  = 3.24                 
 +tox      = 'toxn3'           toxm     = 'toxn3'           xj       = 1.7000001e-07       
 +nch      = 5.2600000e17        lln      = -1                  lwn      = 1.0000000           
 +wln      = 1.0000000           wwn      = 1.0000000           lint     = 4.0000000e-08       
 +ll       = 0.00                lw       = 0.00                lwl      = 0.00                
 +wint     = 1.4999999e-08       wl       = 0.00                ww       = 0.00                
 +wwl      = 0.00                mobmod   = 1                   binunit  = 2                   
 +xl       = '-0.02e-6+dxl3'   xw       = '0.0+dxw3'        dwg      = 0.00                
 +dwb      = 0.00                acm      = 12                  ldif     = 9.00e-08            
 +hdif     = 'hdifn3'          rsh      = 'rshn3'           rd       = 0                   
 +rs       = 0                                     
 +vth0     = '0.7804866+dvthn3'
 +lvth0    = 2.3468242e-08       wvth0    = -2.4198712e-08      pvth0    = 1.2234904e-14       
 +k1       = 0.8636016           lk1      = 3.3932720e-08       wk1      = -2.8401654e-09      
 +pk1      = 4.4665790e-15       k2       = 3.5084160e-02       lk2      = -1.5294709e-08      
 +wk2      = 3.9926540e-10       pk2      = -4.8845690e-15      k3       = 0.00                
 +dvt0     = 0.00                dvt1     = 0.00                dvt2     = 0.00                
 +dvt0w    = 0.00                dvt1w    = 0.00                dvt2w    = 0.00                
 +nlx      = 0.00                w0       = 0.00                k3b      = 0.00                
 +vsat     = 1.0087500e05        lvsat    = -8.6625000e-03      
 +ua       = -7.5848670e-10      lua      = 7.3164600e-17       wua      = 5.7335730e-17       
 +pua      = -4.6839330e-23      ub       = 2.0926081e-18       lub      = -3.0854041e-25      
 +wub      = -7.3941130e-26      pub      = 9.9530690e-32       uc       = 1.0056940e-10       
 +luc      = -1.5151562e-17      wuc      = -1.2806976e-17      puc      = 6.7763810e-24       
 +rdsw     = 5.4500000e02        prwb     = 0.00                prwg     = 0.00                
 +wr       = 1.0000000           u0       = 3.7054640e-02       lu0      = -3.3465050e-09      
 +wu0      = 1.1696366e-09       pu0      = 2.1206480e-15       a0       = 0.6665249           
 +la0      = -2.4707576e-08      wa0      = -2.1531732e-09      pa0      = -5.4783600e-14      
 +keta     = 1.5772361e-02       lketa    = -1.1494187e-08      wketa    = -2.0997273e-09      
 +pketa    = -4.0938080e-15      a1       = 0.00                a2       = 0.9900000           
 +ags      = 2.0000000e-02       b0       = 0.00                b1       = 0.00                
 +voff     = -0.1297337          lvoff    = 2.2381130e-08       wvoff    = 7.1154630e-10       
 +pvoff    = -4.2494230e-15      nfactor  = 1.0000000           cit      = 5.0400000e-04       
 +cdsc     = 0.00                cdscb    = 0.00                cdscd    = 0.00                
 +eta0     = 1.0000000e-05       etab     = -1.0000000e-05      dsub     = 0.00                
 +pclm     = 0.4717489           lpclm    = 2.7968576e-07       wpclm    = -2.6026028e-09      
 +ppclm    = 2.5765768e-14       pdiblc1  = 1.0000000e-06       pdiblc2  = 4.3750000e-04       
 +lpdiblc2 = 6.1874990e-10       pdiblcb  = 1.0000000e-02       drout    = 0.00                
 +pscbe1   = 1.8500000e08        lpscbe1  = 1.4850000e02        pscbe2   = 1.0000000e-06       
 +pvag     = 0.00                delta    = 1.0000000e-02       alpha0   = 0.0                 
 +alpha1   = 7.049416            beta0    = 21.5673             kt1      = -0.2951206          
 +lkt1     = -2.0443341e-08      wkt1     = -5.2802380e-10      pkt1     = 1.1727529e-14       
 +kt2      = -2.7106613e-02      lkt2     = -3.2988250e-09      wkt2     = -1.0290813e-09      
 +pkt2     = 2.1462119e-15       at       = 2.0000000e04        ute      = -1.2394767          
 +lute     = -3.5199690e-08      wute     = -1.8331338e-08      pute     = 3.2815420e-14       
 +ua1      = 2.0399999e-09       ub1      = -2.1723405e-18      lub1     = 1.5535091e-25       
 +wub1     = -1.2308690e-25      pub1     = 8.8139250e-32       uc1      = -5.9918290e-11      
 +luc1     = 6.9217410e-17       wuc1     = -1.7892370e-17      puc1     = 4.5892800e-24       
 +kt1l     = 0.00                prt      = 0                   
 +cj       = cjn3                pb       = 0.7076023
 +mj       = 0.3259624           cjsw     = cjswn3              pbsw     = 0.7076023
 +mjsw     = 0.1513672           cjswg    = cjswgn3             pbswg    = 0.7076023
 +mjswg    = 0.3513672           cgdo     = cgon3               cgso     = cgon3
 +tcj      = 0.0009923959        tcjsw    = 0.0005019466        tcjswg   = 0.0005019466   
 +tpb      = 0.001687207         tpbsw    = 0.001687207         tpbswg   = 0.001687207
 +js       = 3.93e-07            jsw      = 1.43e-12
 +n        = 1                   xti      = 3                   capmod   = 3
 +nqsmod   = 0                   xpart    = 1                   cf       = 0
 +tlev     = 1                   tlevc    = 1                   calcacm  = 1
 +sfvtflag = 0                   llc      = -0.0165             noimod  = 2
 +noia     = 1.0e20		noib     = 4.0e04	       noic	= -4.0e-13
 +em       = 3.0e07		ef       = 0.881               )

 .model nch3.15 nmos	(	lmin     = '5.000e-07-dxl3'      lmax     = '1.200e-06-dxl3'      
 +wmin     = 2.2e-007                                           wmax     = '5.0000e-07-dxw3'      
 +level    = 49                  tnom     = 25.0                version  = 3.24                 
 +tox      = 'toxn3'           toxm     = 'toxn3'           xj       = 1.7000001e-07       
 +nch      = 5.2600000e17        lln      = -1                  lwn      = 1.0000000           
 +wln      = 1.0000000           wwn      = 1.0000000           lint     = 4.0000000e-08       
 +ll       = 0.00                lw       = 0.00                lwl      = 0.00                
 +wint     = 1.4999999e-08       wl       = 0.00                ww       = 0.00                
 +wwl      = 0.00                mobmod   = 1                   binunit  = 2                   
 +xl       = '-0.02e-6+dxl3'   xw       = '0.0+dxw3'        dwg      = 0.00                
 +dwb      = 0.00                acm      = 12                  ldif     = 9.00e-08            
 +hdif     = 'hdifn3'          rsh      = 'rshn3'           rd       = 0                   
 +rs       = 0                                      
 +vth0     = '0.7807397+dvthn3'
 +lvth0    = 2.3189909e-08       wvth0    = -9.6134030e-09      pvth0    = -3.8089400e-15      
 +k1       = 0.7736582           lk1      = 1.3287044e-07       wk1      = 3.2592050e-08       
 +pk1      = -3.4508860e-14      k2       = 6.4881680e-02       lk2      = -4.8071990e-08      
 +wk2      = -1.0676364e-08      pk2      = 7.2986250e-15       k3       = 0.00                
 +dvt0     = 0.00                dvt1     = 0.00                dvt2     = 0.00                
 +dvt0w    = 0.00                dvt1w    = 0.00                dvt2w    = 0.00                
 +nlx      = 0.00                w0       = 0.00                k3b      = 0.00                
 +vsat     = 9.4142860e04        lvsat    = -1.2571429e-03      
 +ua       = -5.9941190e-10      lua      = -1.0181772e-16      wua      = 1.7614915e-17       
 +pua      = -3.1464334e-24      ub       = 1.5764261e-18       lub      = 2.5926002e-25       
 +wub      = 1.4199901e-25       pub      = -1.3800350e-31      uc       = 4.5846500e-11       
 +luc      = 4.5043640e-17       wuc      = 1.1084252e-17       puc      = -1.9503975e-23      
 +rdsw     = 5.4500000e02        prwb     = 0.00                prwg     = 0.00                
 +wr       = 1.0000000           u0       = 3.1034408e-02       lu0      = 3.2757530e-09       
 +wu0      = 3.7992220e-09       pu0      = -7.7189640e-16      a0       = 0.4857765           
 +la0      = 1.7411581e-07       wa0      = -2.8825673e-08      pa0      = -2.5443860e-14      
 +keta     = 2.5973169e-02       lketa    = -2.2715076e-08      wketa    = -1.2361587e-08      
 +pketa    = 7.1942380e-15       a1       = 0.00                a2       = 0.9900000           
 +ags      = 4.2857150e-02       lags     = -2.5142864e-08      b0       = 0.00                
 +b1       = 0.00                voff     = -0.1085447          lvoff    = -9.2680400e-10      
 +wvoff    = -6.7488680e-09      pvoff    = 3.9570330e-15       nfactor  = 1.0000000           
 +cit      = 5.4827290e-04       lcit     = -4.8700200e-11      wcit     = -2.4652778e-11      
 +pcit     = 2.7118061e-17       cdsc     = 0.00                cdscb    = 0.00                
 +cdscd    = 0.00                eta0     = -2.7000002e-04      leta0    = 3.0800001e-10       
 +etab     = 2.7000002e-04       letab    = -3.0800001e-10      dsub     = 0.00                
 +pclm     = 0.6242409           lpclm    = 1.1194462e-07       wpclm    = -6.1433820e-08      
 +ppclm    = 9.0480110e-14       pdiblc1  = 1.0000000e-06       pdiblc2  = 4.2857150e-04       
 +lpdiblc2 = 6.2857140e-10       pdiblcb  = 1.0000000e-02       drout    = 0.00                
 +pscbe1   = 3.0285712e08        lpscbe1  = 18.8571830          pscbe2   = 1.0000000e-06       
 +pvag     = 0.00                delta    = 1.0000000e-02       alpha0   = 0.0                 
 +alpha1   = 7.049416            beta0    = 21.5673             kt1      = -0.3598902          
[...]
          k1=   0.874153 V^1/2            k2=  0.0257161         
          k3=          0                 k3b=          0 V^-1    
          w0=          0 meter          dvt0=          0         
        dvt1=          0                dvt2=          0 V^-1    
       dvt0w=          0 meter^-1      dvt1w=          0 meter^-1
       dvt2w=          0 V^-1           dsub=          0         
        eta0=-0.000198865                etab=0.000198865 V^-1    
          u0=  0.0416231 m^2/V/sec         ua=-5.52163e-10 m/V     
          ub=2.26261e-18 (m/V)^2          uc=8.84002e-11 V^-1    
        vsat=    94142.9 m/sec            a1=          0 v^-1    
          a2=       0.99               delta=       0.01 V       
        rdsw=        545 ohm-um         prwg=          0 V^-1    
        prwb=          0 V^-1/2           wr=          1         
        pclm=    0.67609             pdiblc1=      1e-06         
     pdiblc2= 0.00100423             pdiblcb=       0.01 V^-1    
      pscbe1=3.02857e+08 V/m          pscbe2=      1e-06 V/m     
       drout=          0                pvag=          0         
     nfactor=          1                cdsc=          0 f/m^2   
       cdscb=          0 f/V/m^2       cdscd=          0 f/V/m^2 
         cit= 0.00052714 f/m^2        alpha0=          0 m/V     
       beta0=    21.5673 V               dlc=      4e-08 meter   
         dwc=    1.5e-08 meter           clc=      1e-07 meter   
         cle=        0.6                cgso=   3.18e-10 f/m     
        cgdo=   3.18e-10 f/m            cgbo=1.52344e-10 f/m     
        cgsl=          0 f/m            cgdl=          0 f/m     
      ckappa=        0.6                  cf=          0 f/m     
        acde=          1 m/V            moin=         15 V^1/2   
        toxm=    6.8e-09 m            dtoxcv=          0 m       
         vfb (not used)                alpha1=    7.04942 1/V     
        ijth=        0.1 A              noff=          1         
      voffcv=          0                 tcj=0.000992396 1/K     
       tcjsw=0.000501947 1/K          tcjswg=0.000501947 1/K     
         tpb= 0.00168721 V/K           tpbsw= 0.00168721 V/K     
      tpbswg= 0.00168721 V/K             llc=    -0.0165         
         lwc=          0                lwlc=          0         
         wlc=          0                 wwc=          0         
        wwlc=          0                tnom=     298.15 K       
         kt1=  -0.307171 V              kt1l=          0         
         kt2= -0.0329769                 ute=   -1.40013         
         ua1=   2.04e-09 m/V             ub1=-2.73887e-18 (m/V)^2 
         uc1=-7.89137e-11 m/V^2            at=      20000 m/s     
         prt=          0         
         using Berkeley noise model       noiMod=          2         
        noia=      1e+20                noib=      40000         
        noic=     -4e-13                  em=      3e+07         
          ef=      0.881                  af=          1         
          kf=          0              gdsnoi=-1.23457e-29         
         using Berkeley diodes          using ACM 
         acm=        12                 hdif=     2e-07 meter    
        ldif=     9e-08 meter             js=  3.93e-07 amp/m^2  
         jsw=  1.43e-12 amp/m            xti=         3          
          nj=         1                   cj=0.000896479 f/m^2    
          mj=  0.325962                   pb=  0.707602 V        
        cjsw=2.50664e-10 f/m             mjsw=  0.151367          
         php (not used)                  pbsw=  0.707602 V        
      cjgate (not used)                 cjswg=3.00664e-10 f/m      
       mjswg=  0.351367                pbswg=  0.707602 V        
         la0=7.62687e-08                lags=-2.51429e-08         
       lketa= -1.541e-08               lvoff=3.19177e-09         
       lvth0=1.44205e-08                 lk1=5.23376e-08         
         lk2=-2.79551e-08               leta0=2.79546e-10         
       letab=-2.79546e-10                 lu0=1.18917e-09         
         lua=-1.41344e-16                 lub=1.59975e-25         
         luc=3.08474e-17               lvsat=-0.00125714         
       lpclm= 7.0287e-09            lpdiblc2=-4.65715e-12         
     lpscbe1=    18.8572                lcit=-8.96885e-12         
        lkt1=1.87654e-08                lkt2=4.30537e-09         
        lute=1.40918e-07                lub1=6.38514e-25         
        luc1=8.58866e-17                 wa0=-7.81157e-08         
       wketa=-3.19947e-09               wvoff=-2.24619e-09         
       wvth0=-2.73281e-08                 wk1=-1.58575e-08         
         wk2= 8.6688e-09               weta0=-8.32279e-11         
       wetab=8.32279e-11                 wu0=-4.43983e-09         
         wua=1.71726e-17                 wub=-4.11642e-25         
         wuc=-1.63021e-17               wpclm=-7.76394e-08         
    wpdiblc2=-4.22114e-11                wcit=-1.82166e-12         
        wkt1=1.28601e-08                wkt2=3.70269e-09         
        wute=1.59338e-07                wub1=6.04096e-25         
        wuc1=3.95386e-17                 pa0=4.42934e-14         
       pketa=3.46433e-15               pvoff=4.91917e-15         
       pvth0=1.01254e-14                 pk1=-1.16385e-14         
         pk2=6.37124e-15               peta0=3.32913e-17         
       petab=-3.32913e-17                 pu0=4.40617e-16         
         pua=-9.7486e-24                 pub=-5.63089e-32         
         puc=-1.21132e-23               ppclm=1.33159e-13         
    ppdiblc2=4.64325e-17                pcit=2.16024e-18         
        pkt1=-1.48948e-14                pkt2=-3.79015e-15         
        pute=-1.52886e-13                pub1=-5.67001e-31         
        puc1=-6.25433e-23         
 ***************************************************************************
 ***        model parameters  model name:   0:pch3.3   model type:pmos   ***
 ***************************************************************************

   *** general parameters ***
    deriv=   0.           

   ***  level 49  model parameters  ***

      hspver=    2006.03               level=         49         
     version=       3.24            paramchk=          0         
      apwarn=          1                lite=          0         
      vgslim=          0             binUnit=          2         
      capMod=          3               xpart=          1         
      mobMod=          1              nqsMod=          0         
      stiMod=          0                 elm=          5         
    sfvtflag=          0                 tox=   6.77e-09 meter   
          xj=    1.7e-07 meter       binflag=          0         
        lmin=      5e-07 meter          lmax=    1.2e-06 meter   
        wmin=      1e-05 meter          wmax=0.000900001 meter   
        lref=          0 meter          wref=          0 meter   
        lint=    3.5e-08 meter          wint=      2e-08 meter   
       lmult=          1               wmult=          1         
          ll=          0                 lln=         -1         
          lw=          0                 lwn=          1         
         lwl=          0                  wl=          0         
         wln=          1                  ww=          0         
         wwn=          1                 wwl=          0         
         dwg=          0 m/V             dwb=          0 m/V^1/2 
          a0=   0.887347                 ags=       0.02 V^-1    
          b0=          0 meter            b1=          0 meter   
        keta=  0.0204008 V^-1           voff=  -0.116889 V       
       ngate=          0 cm^-3           vbx=          0 V       
         vbm=         -3 V                xt=   1.55e-07 meter   
        vth0=  -0.706653 V               nch=   4.95e+17 cm^-3   
        nsub=      6e+16 cm^-3           nlx=          0 meter   
      gamma1=          0 V^-1/2       gamma2=          0 V^-1/2  
          k1=     0.8542 V^1/2            k2=  0.0736372         
          k3=          0                 k3b=          0 V^-1    
          w0=          0 meter          dvt0=          0         
        dvt1=          0                dvt2=          0 V^-1    
       dvt0w=          0 meter^-1      dvt1w=          0 meter^-1
       dvt2w=          0 V^-1           dsub=          0         
        eta0=-4.27143e-05                etab=4.27143e-05 V^-1    
          u0=  0.0130203 m^2/V/sec         ua=2.06037e-09 m/V     
          ub=1.00487e-19 (m/V)^2          uc=-1.29484e-10 V^-1    
        vsat=     125857 m/sec            a1=          0 v^-1    
          a2=       0.99               delta=       0.01 V       
        rdsw=        900 ohm-um         prwg=          0 V^-1    
        prwb=          0 V^-1/2           wr=          1         
        pclm=   0.586532             pdiblc1=      1e-06         
     pdiblc2=-0.000569857             pdiblcb=       0.01 V^-1    
      pscbe1=2.70714e+08 V/m          pscbe2=      5e-07 V/m     
       drout=          0                pvag=          0         
     nfactor=          1                cdsc=          0 f/m^2   
       cdscb=          0 f/V/m^2       cdscd=          0 f/V/m^2 
         cit=0.000499638 f/m^2        alpha0=          0 m/V     
       beta0=    16.1083 V               dlc=    3.5e-08 meter   
         dwc=      2e-08 meter           clc=      1e-07 meter   
         cle=        0.6                cgso=   2.77e-10 f/m     
        cgdo=   2.77e-10 f/m            cgbo=2.04026e-10 f/m     
        cgsl=          0 f/m            cgdl=          0 f/m     
      ckappa=        0.6                  cf=          0 f/m     
        acde=          1 m/V            moin=         15 V^1/2   
        toxm=   6.77e-09 m            dtoxcv=          0 m       
         vfb (not used)                alpha1=   0.143217 1/V     
        ijth=        0.1 A              noff=          1         
      voffcv=          0                 tcj= 0.00099402 1/K     
       tcjsw=0.000690875 1/K          tcjswg=0.000690875 1/K     
         tpb= 0.00162501 V/K           tpbsw= 0.00162501 V/K     
      tpbswg= 0.00162501 V/K             llc=    -0.0165         
         lwc=          0                lwlc=          0         
         wlc=          0                 wwc=          0         
        wwlc=          0                tnom=     298.15 K       
         kt1=  -0.296215 V              kt1l=          0         
         kt2= -0.0247298                 ute=  -0.744744         
         ua1=  2.031e-09 m/V             ub1=-2.77457e-18 (m/V)^2 
         uc1=2.70873e-11 m/V^2            at=     -50000 m/s     
         prt=          0         
         using Berkeley noise model       noiMod=          2         
        noia=      2e+19                noib=       8000         
        noic=    5.4e-12                  em=      3e+07         
          ef=      1.094                  af=          1         
          kf=          0              gdsnoi=-1.23457e-29         
         using Berkeley diodes          using ACM 
         acm=        12                 hdif=     2e-07 meter    
        ldif=     9e-08 meter             js=   1.9e-07 amp/m^2  
         jsw=     1e-12 amp/m            xti=         3          
          nj=         1                   cj=0.00103531 f/m^2    
          mj=  0.395495                   pb=  0.804912 V        
        cjsw=2.23115e-10 f/m             mjsw=  0.257311          
         php (not used)                  pbsw=  0.804912 V        
      cjgate (not used)                 cjswg=2.34576e-10 f/m      
       mjswg=  0.257311                pbswg=  0.804912 V        
         la0=2.30923e-08               lketa=-1.12333e-08         
       lvoff=5.29693e-09               lvth0=2.37702e-10         
         lk1=1.27165e-08                 lk2=-5.85541e-09         
       leta0=5.85128e-11               letab=-5.85128e-11         
         lu0=-1.28921e-09                 lua=-5.1994e-16         
         lub=2.62528e-25                 luc=4.29692e-17         
       lvsat=-0.00650141               lpclm= 4.0258e-08         
    lpdiblc2=6.43642e-10             lpscbe1=    32.5071         
        lcit=2.60271e-12                lkt1=-2.20992e-09         
        lkt2=-1.52628e-09                lute=5.52719e-08         
        lub1=2.89737e-25                luc1=1.57492e-19         
 

1****** HSPICE -- A-2008.03 64-BIT (Feb 26 2008) linux ******                   
 ******  
 self-bias inverter                                                             
  ******  circuit element summary          tnom=  25.000 temp=  25.000          
 ******  


 **** capacitors
  
 
                             
 element name        0:cl    
 node1               0:out   
 node2               0:0     
 model                       
 cap eff            10.0000p 
 tc1                 0.      
 tc2                 0.      
 scale               1.0000  
 ic                  0.      
 m                   1.0000  
 w                   0.      
 l                   0.      
 temp               25.0000  


 **** voltage-controlled voltage sources
      name        +             -          dimension  function  scale
        0:e1              0:inn             0:0              1      poly       1.    


 **** independent sources

     name         node1        node2      dc volt    ac mag    ac phase    type
        0:vdd       0:vdd                    0:0                   1.8000     0.         0.      dc   
        0:v1       0:in                     0:inn                 0.         1.0000     0.      dc   


 **** mosfets


 **** BSIM3v3 Model (Level49 or Level53)
  
 
                                                                  
 element name        0:m1        0:m2        0:m3        0:m4     
 drain               0:out       0:out       0:base      0:base   
 gate                0:in        0:in        0:base      0:base   
 source              0:0         0:vdd       0:0         0:vdd    
 bulk                0:0         0:vdd       0:0         0:vdd    
 model               0:nch3.7    0:pch3.3    0:nch3.7    0:pch3.3 
 w eff               4.9700u     9.9600u     4.9700u     9.9600u  
 l eff             900.0000n   910.0000n   900.0000n   910.0000n  
 rd eff            272.0000m   144.0000m   272.0000m   144.0000m  
 rs eff            272.0000m   144.0000m   272.0000m   144.0000m  
 cdsat              16.2300a    21.5600a    16.2300a    21.5600a  
 cssat              16.2300a    21.5600a    16.2300a    21.5600a  
 capbd               4.7501f     8.8966f     4.7501f     8.8966f  
 capbs               4.7501f     8.8966f     4.7501f     8.8966f  
 temp               25.0000     25.0000     25.0000     25.0000   
 aic                                                              
 nf                  1.0000      1.0000      1.0000      1.0000   
 sa                  0.          0.          0.          0.       
 sb                  0.          0.          0.          0.       
 sd                  0.          0.          0.          0.       
 saeff               0.          0.          0.          0.       
 sbeff               0.          0.          0.          0.       
 mulu0               1.0000      1.0000      1.0000      1.0000   
 mulua               1.0000      1.0000      1.0000      1.0000   
 mulub               1.0000      1.0000      1.0000      1.0000   
  
 
1****** HSPICE -- A-2008.03 64-BIT (Feb 26 2008) linux ******                   
 ******  
 self-bias inverter                                                             
  ******  element node table                                                    
 ******  
                                                                                
       
 0                cl               e1               vdd              m1:s       
       
                  m1:b             m3:s             m3:b             e1:-       
       
 base             m3:d             m3:g             m4:d             m4:g       
       
                  e1:+                                                          
       
 in               v1               m1:g             m2:g                        
       
 inn              e1               v1                                           
       
 out              cl               m1:d             m2:d                        
       
 vdd              vdd              m2:s             m2:b             m4:s       
       
                  m4:b                                                          
       
1****** HSPICE -- A-2008.03 64-BIT (Feb 26 2008) linux ******                   
 ******  
 self-bias inverter                                                             
  ******  operating point information      tnom=  25.000 temp=  25.000          
 ******  
 ***** operating point status is all       simulation time is     0.     
    node    =voltage      node    =voltage      node    =voltage

 +0:base    = 899.9981m 0:in      = 899.9981m 0:inn     = 899.9981m
 +0:out     = 899.9981m 0:vdd     =   1.8000 


 ****  voltage sources

 subckt                        
 element  0:vdd      0:v1      
  volts      1.8000     0.     
  current  -16.7128u    0.     
  power     30.0830u    0.     

     total voltage source power dissipation=   30.0830u       watts



 **** voltage-controlled voltage sources


 subckt             
 element  0:e1      
  volts    899.9981m
  current    0.     





 **** mosfets


 subckt                                              
 element  0:m1       0:m2       0:m3       0:m4      
 model    0:nch3.7   0:pch3.3   0:nch3.7   0:pch3.3  
 region     Saturati   Saturati   Saturati   Saturati
  id         8.3564u   -8.3564u    8.3564u   -8.3564u
  ibs     -1.436e-21  1.010e-21 -1.436e-21  1.010e-21
  ibd      -57.8575a  199.0652a  -57.8575a  199.0652a
  vgs      899.9981m -900.0019m  899.9981m -900.0019m
  vds      899.9981m -900.0019m  899.9981m -900.0019m
  vbs        0.         0.         0.         0.     
  vth      800.7341m -706.2050m  800.7341m -706.2050m
  vdsat    123.7194m -180.3146m  123.7194m -180.3146m
  vod       99.2640m -193.7969m   99.2640m -193.7969m
  beta       1.2183m  471.1082u    1.2183m  471.1082u
  gam eff  930.6493m  740.6822m  930.6493m  740.6822m
  gm       106.8048u   73.5537u  106.8048u   73.5537u
  gds      189.3632n  140.3290n  189.3632n  140.3290n
  gmb       50.7210u   38.8410u   50.7210u   38.8410u
  cdtot      5.3657f    9.7677f    5.3657f    9.7677f
  cgtot     18.9194f   40.0468f   18.9194f   40.0468f
  cstot     25.2282f   54.7013f   25.2282f   54.7013f
  cbtot     17.8084f   33.8002f   17.8084f   33.8002f
  cgs       14.2486f   34.1837f   14.2486f   34.1837f
  cgd        1.5789f    2.7591f    1.5789f    2.7591f



 **warning** no probe statements specified, thus .tr# omitted

          ***** job concluded
1****** HSPICE -- A-2008.03 64-BIT (Feb 26 2008) linux ******                   
 ******  
 self-bias inverter                                                             
  ******  job statistics summary           tnom=  25.000 temp=  25.000          
 ******  

           total memory used             195 kbytes

  # nodes =      14 # elements=       8
  # diodes=       0 # bjts    =       0 # jfets   =       0 # mosfets =       4
  # va device =       0

    analysis           time    # points   tot. iter  conv.iter

    op point           0.00           1           6
    transient          0.00         301         126          63 rev=         0
    readin             0.10
    errchk             0.00
    setup              0.00
    output             0.00
           total cpu time          0.10 seconds
           total elapsed time         1 seconds
               job started at  21:50:46 04/04/2010
               job ended   at  21:50:46 04/04/2010


 lic: Release hspice token(s) 
